 Resolving package versions...
 Installed IncGammaBeta ───── v0.1.0
 Installed VersionParsing ─── v1.1.3
 Installed URIParser ──────── v0.4.0
 Installed Reexport ───────── v0.2.0
 Installed BinDeps ────────── v0.8.10
 Installed SpecialFunctions ─ v0.8.0
 Installed AbstractAlgebra ── v0.7.1
 Installed TwoFAST ────────── v0.1.0
 Installed Conda ──────────── v1.3.0
 Installed JSON ───────────── v0.21.0
 Installed Compat ─────────── v2.2.0
 Installed FFTW ───────────── v1.1.0
 Installed BinaryProvider ─── v0.5.8
 Installed Parsers ────────── v0.3.10
 Installed AbstractFFTs ───── v0.5.0
 Installed Nemo ───────────── v0.15.1
  Updating `~/.julia/environments/v1.3/Project.toml`
  [0dd23c3e] + TwoFAST v0.1.0
  Updating `~/.julia/environments/v1.3/Manifest.toml`
  [c3fe647b] + AbstractAlgebra v0.7.1
  [621f4979] + AbstractFFTs v0.5.0
  [9e28174c] + BinDeps v0.8.10
  [b99e7846] + BinaryProvider v0.5.8
  [34da2185] + Compat v2.2.0
  [8f4d0f93] + Conda v1.3.0
  [7a1cc6ca] + FFTW v1.1.0
  [5087d2c0] + IncGammaBeta v0.1.0
  [682c06a0] + JSON v0.21.0
  [2edaba10] + Nemo v0.15.1
  [69de0a69] + Parsers v0.3.10
  [189a3867] + Reexport v0.2.0
  [276daf66] + SpecialFunctions v0.8.0
  [0dd23c3e] + TwoFAST v0.1.0
  [30578b45] + URIParser v0.4.0
  [81def892] + VersionParsing v1.1.3
  [2a0f44e3] + Base64 
  [ade2ca70] + Dates 
  [8bb1440f] + DelimitedFiles 
  [8ba89e20] + Distributed 
  [b77e0a4c] + InteractiveUtils 
  [76f85450] + LibGit2 
  [8f399da3] + Libdl 
  [37e2e46d] + LinearAlgebra 
  [56ddb016] + Logging 
  [d6f4376e] + Markdown 
  [a63ad114] + Mmap 
  [44cfe95a] + Pkg 
  [de0858da] + Printf 
  [3fa0cd96] + REPL 
  [9a3f8284] + Random 
  [ea8e919c] + SHA 
  [9e88b42a] + Serialization 
  [1a1011a3] + SharedArrays 
  [6462fe0b] + Sockets 
  [2f01184e] + SparseArrays 
  [10745b16] + Statistics 
  [8dfed614] + Test 
  [cf7118a7] + UUIDs 
  [4ec0a83e] + Unicode 
  Building SpecialFunctions → `~/.julia/packages/SpecialFunctions/ne2iw/deps/build.log`
  Building Conda ───────────→ `~/.julia/packages/Conda/kLXeC/deps/build.log`
  Building FFTW ────────────→ `~/.julia/packages/FFTW/loJ3F/deps/build.log`
  Building Nemo ────────────→ `~/.julia/packages/Nemo/qzx0m/deps/build.log`
   Testing TwoFAST
 Resolving package versions...
 Installed Dierckx ─ v0.4.1
  Building Dierckx → `~/.julia/packages/Dierckx/9SY4A/deps/build.log`
    Status `/tmp/jl_I2iv5V/Manifest.toml`
  [c3fe647b] AbstractAlgebra v0.7.1
  [621f4979] AbstractFFTs v0.5.0
  [9e28174c] BinDeps v0.8.10
  [b99e7846] BinaryProvider v0.5.8
  [34da2185] Compat v2.2.0
  [8f4d0f93] Conda v1.3.0
  [39dd38d3] Dierckx v0.4.1
  [7a1cc6ca] FFTW v1.1.0
  [5087d2c0] IncGammaBeta v0.1.0
  [682c06a0] JSON v0.21.0
  [2edaba10] Nemo v0.15.1
  [69de0a69] Parsers v0.3.10
  [189a3867] Reexport v0.2.0
  [276daf66] SpecialFunctions v0.8.0
  [0dd23c3e] TwoFAST v0.1.0
  [30578b45] URIParser v0.4.0
  [81def892] VersionParsing v1.1.3
  [2a0f44e3] Base64  [`@stdlib/Base64`]
  [ade2ca70] Dates  [`@stdlib/Dates`]
  [8bb1440f] DelimitedFiles  [`@stdlib/DelimitedFiles`]
  [8ba89e20] Distributed  [`@stdlib/Distributed`]
  [b77e0a4c] InteractiveUtils  [`@stdlib/InteractiveUtils`]
  [76f85450] LibGit2  [`@stdlib/LibGit2`]
  [8f399da3] Libdl  [`@stdlib/Libdl`]
  [37e2e46d] LinearAlgebra  [`@stdlib/LinearAlgebra`]
  [56ddb016] Logging  [`@stdlib/Logging`]
  [d6f4376e] Markdown  [`@stdlib/Markdown`]
  [a63ad114] Mmap  [`@stdlib/Mmap`]
  [44cfe95a] Pkg  [`@stdlib/Pkg`]
  [de0858da] Printf  [`@stdlib/Printf`]
  [3fa0cd96] REPL  [`@stdlib/REPL`]
  [9a3f8284] Random  [`@stdlib/Random`]
  [ea8e919c] SHA  [`@stdlib/SHA`]
  [9e88b42a] Serialization  [`@stdlib/Serialization`]
  [1a1011a3] SharedArrays  [`@stdlib/SharedArrays`]
  [6462fe0b] Sockets  [`@stdlib/Sockets`]
  [2f01184e] SparseArrays  [`@stdlib/SparseArrays`]
  [10745b16] Statistics  [`@stdlib/Statistics`]
  [8dfed614] Test  [`@stdlib/Test`]
  [cf7118a7] UUIDs  [`@stdlib/UUIDs`]
  [4ec0a83e] Unicode  [`@stdlib/Unicode`]

Welcome to Nemo version 0.15.1

Nemo comes with absolutely no warranty whatsoever


Welcome to Nemo version 0.15.1

Nemo comes with absolutely no warranty whatsoever

Testing ξ(r), ℓ=0, ν=-1 ... passed
Testing ξ(r), ℓ=0, ν=0 ... passed
Testing ξ(r), ℓ=0, ν=1 ... passed
Testing ξ(r), ℓ=0, ν=2 ... passed
Testing ξ(r), ℓ=0, ν=3 ... passed
Testing ξ(r), ℓ=1, ν=0 ... passed
Testing ξ(r), ℓ=1, ν=1 ... passed
Testing ξ(r), ℓ=1, ν=2 ... passed
Testing ξ(r), ℓ=1, ν=3 ... passed
Testing ξ(r), ℓ=2, ν=-1 ... passed
Testing ξ(r), ℓ=2, ν=0 ... passed
Testing ξ(r), ℓ=2, ν=1 ... passed
Testing ξ(r), ℓ=2, ν=2 ... passed
Testing ξ(r), ℓ=2, ν=3 ... passed
Testing ξ(r), ℓ=3, ν=-1 ... passed
Testing ξ(r), ℓ=3, ν=0 ... passed
Testing ξ(r), ℓ=3, ν=1 ... passed
Testing ξ(r), ℓ=3, ν=2 ... passed
Testing ξ(r), ℓ=3, ν=3 ... passed
Testing ξ(r), ℓ=4, ν=-1 ... passed
Testing ξ(r), ℓ=4, ν=0 ... passed
Testing ξ(r), ℓ=4, ν=1 ... passed
Testing ξ(r), ℓ=4, ν=2 ... passed
Testing ξ(r), ℓ=4, ν=3 ... passed
Testing ξ(r) ... passed
Testing ξ′(r) ... passed
Testing ξ″(r) ... passed
Calculating fmax: 
  dlrec    = 4
  dlrecRg1 = -4
  q=1.1, R=1.1:	  3.833529 seconds (1.11 M allocations: 119.114 MiB, 2.76% gc time)

  3.859894 seconds (1.11 M allocations: 119.472 MiB, 2.74% gc time)
ℓ = 1202
Δℓ = 4
ΔℓRg1 = -4
N = 1600
q = 1.1
kmin = 1.0e-5
kmax = 100000.00000000004
χ0 = 0.023029999999999995
RR = RR.tsv
ℓmax = ℓmax.bin
f21 = f21.bin
kmin = 1.0e-5
kmax = 100000.0
dlrec    = 4
dlrecRg1 = -4
Output size: 5741568 bytes = 0.005347251892089844 GiB
Output size: 51264 bytes = 4.774332046508789e-5 GiB
Reading 'out/F21EllCache'...   0.592829 seconds (348.12 k allocations: 17.867 MiB, 3.58% gc time)
ellmax: 1202
lmaxcache: 1202
fell[:,1,1] = Complex{Float64}[3.9583795592771634e-52 - 9.695233714158177e-68im, 3.990121772925759e-52 - 9.772979714843386e-68im]
ell 1202, elapsed: 0.0032510757446289062
ell 1201, elapsed: 2.181952953338623
ell 1200, elapsed: 0.0005109310150146484
ell 1199, elapsed: 0.00043201446533203125
ell 1198, elapsed: 0.0004258155822753906
ell 1002, elapsed: 0.009572982788085938
ell 1001, elapsed: 0.00043892860412597656
ell 1000, elapsed: 0.00045418739318847656
ell 999, elapsed: 0.0004470348358154297
ell 998, elapsed: 0.0006058216094970703
ell 902, elapsed: 0.0052928924560546875
ell 901, elapsed: 0.0005481243133544922
ell 900, elapsed: 0.0005240440368652344
ell 899, elapsed: 0.0005679130554199219
ell 898, elapsed: 0.0006418228149414062
ell 802, elapsed: 0.005400896072387695
ell 801, elapsed: 0.0006198883056640625
ell 800, elapsed: 0.0005829334259033203
ell 799, elapsed: 0.0005750656127929688
ell 798, elapsed: 0.0005929470062255859
ell 702, elapsed: 0.005254030227661133
ell 701, elapsed: 0.0006129741668701172
ell 700, elapsed: 0.0005788803100585938
ell 699, elapsed: 0.00057220458984375
ell 698, elapsed: 0.0006091594696044922
ell 602, elapsed: 0.005384922027587891
ell 601, elapsed: 0.0006299018859863281
ell 600, elapsed: 0.0005810260772705078
ell 599, elapsed: 0.0005688667297363281
ell 598, elapsed: 0.0005629062652587891
ell 502, elapsed: 0.005232810974121094
ell 501, elapsed: 0.0006330013275146484
ell 500, elapsed: 0.0005879402160644531
ell 499, elapsed: 0.0005800724029541016
ell 498, elapsed: 0.0005731582641601562
ell 402, elapsed: 0.0058939456939697266
ell 401, elapsed: 0.0005269050598144531
ell 400, elapsed: 0.0005021095275878906
ell 399, elapsed: 0.0004870891571044922
ell 398, elapsed: 0.0005099773406982422
ell 302, elapsed: 0.005379915237426758
ell 301, elapsed: 0.0005891323089599609
ell 300, elapsed: 0.000576019287109375
ell 299, elapsed: 0.0004990100860595703
ell 298, elapsed: 0.0004901885986328125
ell 202, elapsed: 0.005189180374145508
ell 201, elapsed: 0.000514984130859375
ell 200, elapsed: 0.0004999637603759766
ell 199, elapsed: 0.0004980564117431641
ell 198, elapsed: 0.0005071163177490234
ell 152, elapsed: 0.0027010440826416016
ell 151, elapsed: 0.0004971027374267578
ell 150, elapsed: 0.0005118846893310547
ell 149, elapsed: 0.0004918575286865234
ell 148, elapsed: 0.0005159378051757812
ell 127, elapsed: 0.0016319751739501953
ell 126, elapsed: 0.0005478858947753906
ell 125, elapsed: 0.0005121231079101562
ell 124, elapsed: 0.0005280971527099609
ell 123, elapsed: 0.00046515464782714844
ell 114, elapsed: 0.0008871555328369141
ell 113, elapsed: 0.00044608116149902344
ell 112, elapsed: 0.0004260540008544922
ell 111, elapsed: 0.00045609474182128906
ell 110, elapsed: 0.00043201446533203125
ell 102, elapsed: 0.0009109973907470703
ell 101, elapsed: 0.00043082237243652344
ell 100, elapsed: 0.0004508495330810547
ell 99, elapsed: 0.0004458427429199219
ell 98, elapsed: 0.00044989585876464844
ell 97, elapsed: 0.0004849433898925781
ell 96, elapsed: 0.0006160736083984375
ell 95, elapsed: 0.0004999637603759766
ell 94, elapsed: 0.0005829334259033203
ell 93, elapsed: 0.0005052089691162109
ell 92, elapsed: 0.0005528926849365234
ell 91, elapsed: 0.00047087669372558594
ell 90, elapsed: 0.0005860328674316406
ell 89, elapsed: 0.0005028247833251953
ell 88, elapsed: 0.0005691051483154297
ell 87, elapsed: 0.0005588531494140625
ell 86, elapsed: 0.0006170272827148438
ell 85, elapsed: 0.0005028247833251953
ell 84, elapsed: 0.0005860328674316406
ell 83, elapsed: 0.0004930496215820312
ell 82, elapsed: 0.000576019287109375
ell 81, elapsed: 0.00046896934509277344
ell 80, elapsed: 0.0005719661712646484
ell 79, elapsed: 0.0005028247833251953
ell 78, elapsed: 0.0006358623504638672
ell 77, elapsed: 0.0005300045013427734
ell 76, elapsed: 0.0006208419799804688
ell 75, elapsed: 0.0005409717559814453
ell 74, elapsed: 0.0007040500640869141
ell 73, elapsed: 0.0004949569702148438
ell 72, elapsed: 0.0005731582641601562
ell 71, elapsed: 0.000492095947265625
ell 70, elapsed: 0.0005841255187988281
ell 69, elapsed: 0.0004930496215820312
ell 68, elapsed: 0.0005538463592529297
ell 67, elapsed: 0.0004730224609375
ell 66, elapsed: 0.0005669593811035156
ell 65, elapsed: 0.0004889965057373047
ell 64, elapsed: 0.0005788803100585938
ell 63, elapsed: 0.00047397613525390625
ell 62, elapsed: 0.0005459785461425781
ell 61, elapsed: 0.0004699230194091797
ell 60, elapsed: 0.0005478858947753906
ell 59, elapsed: 0.0004680156707763672
ell 58, elapsed: 0.0005440711975097656
ell 57, elapsed: 0.00049591064453125
ell 56, elapsed: 0.0005450248718261719
ell 55, elapsed: 0.0004658699035644531
ell 54, elapsed: 0.0005428791046142578
ell 53, elapsed: 0.0004649162292480469
ell 52, elapsed: 0.0005512237548828125
ell 51, elapsed: 0.0004680156707763672
ell 50, elapsed: 0.0005340576171875
ell 49, elapsed: 0.00047206878662109375
ell 48, elapsed: 0.0005397796630859375
ell 47, elapsed: 0.00046896934509277344
ell 46, elapsed: 0.0005400180816650391
ell 45, elapsed: 0.00046706199645996094
ell 44, elapsed: 0.0005390644073486328
ell 43, elapsed: 0.0004668235778808594
ell 42, elapsed: 0.0005660057067871094
ell 41, elapsed: 0.0004761219024658203
ell 40, elapsed: 0.0005600452423095703
ell 39, elapsed: 0.0004649162292480469
ell 38, elapsed: 0.0005538463592529297
ell 37, elapsed: 0.0004711151123046875
ell 36, elapsed: 0.0005519390106201172
ell 35, elapsed: 0.00048804283142089844
ell 34, elapsed: 0.0006220340728759766
ell 33, elapsed: 0.0004940032958984375
ell 32, elapsed: 0.0005538463592529297
ell 31, elapsed: 0.0004680156707763672
ell 30, elapsed: 0.0005319118499755859
ell 29, elapsed: 0.0004780292510986328
ell 28, elapsed: 0.0005440711975097656
ell 27, elapsed: 0.0004680156707763672
ell 26, elapsed: 0.0005400180816650391
ell 25, elapsed: 0.0004711151123046875
ell 24, elapsed: 0.0005409717559814453
ell 23, elapsed: 0.0004680156707763672
ell 22, elapsed: 0.0005581378936767578
ell 21, elapsed: 0.0004508495330810547
ell 20, elapsed: 0.0005140304565429688
ell 19, elapsed: 0.00044608116149902344
ell 18, elapsed: 0.0005278587341308594
ell 17, elapsed: 0.0004680156707763672
ell 16, elapsed: 0.0005490779876708984
ell 15, elapsed: 0.000453948974609375
ell 14, elapsed: 0.0006079673767089844
ell 13, elapsed: 0.0005109310150146484
ell 12, elapsed: 0.0006039142608642578
ell 11, elapsed: 0.0005159378051757812
ell 10, elapsed: 0.0006301403045654297
ell 9, elapsed: 0.0005600452423095703
ell 8, elapsed: 0.0006170272827148438
ell 7, elapsed: 0.0005521774291992188
ell 6, elapsed: 0.0006549358367919922
ell 5, elapsed: 0.0005609989166259766
ell 4, elapsed: 0.000640869140625
ell 3, elapsed: 0.0005590915679931641
ell 2, elapsed: 0.0006320476531982422
ell 1, elapsed: 0.0005609989166259766
ell 0, elapsed: 0.0006401538848876953
  2.478896 seconds (1.51 M allocations: 74.494 MiB, 0.91% gc time)
elapsed: 0.0017838478088378906
step:          0.74153 sec (477.89 k allocations: 23.729 MB, 0.0% gc time)
swapping:      0.000536 sec (0 allocations: 0 byte, 0.0% gc time)
calc_Mellell!: 0.482673 sec (371.439 k allocations: 18.4 MB, 0.0% gc time)
  t0 :  0.0 sec (0 allocations: 0 byte, 0.0% gc time)
  tm2 : 0.0 sec (0 allocations: 0 byte, 0.0% gc time)
  tm2s: 0.0 sec (0 allocations: 0 byte, 0.0% gc time)
  tm4 : 0.0 sec (0 allocations: 0 byte, 0.0% gc time)
  tp2 : 0.0 sec (0 allocations: 0 byte, 0.0% gc time)
  tp2s: 0.0 sec (0 allocations: 0 byte, 0.0% gc time)
  tp4 : 0.0 sec (0 allocations: 0 byte, 0.0% gc time)
calc_wtdll!:   1.073622 sec (571.762 k allocations: 28.059 MB, 2.11% gc time)
calc_wljj!:    0.003616 sec (6 allocations: 96 byte, 0.0% gc time)
mult_prefac!:  0.0 sec (0 allocations: 0 byte, 0.0% gc time)
convert:       0.0 sec (0 allocations: 0 byte, 0.0% gc time)
write:         0.005055 sec (0 allocations: 0 byte, 0.0% gc time)
test_rand_2f1: 0.0 sec (0 allocations: 0 byte, 0.0% gc time)
Closing outfile out/Ml21-cache.bin...   0.000152 seconds
  0.972875 seconds (8.63 k allocations: 420.063 KiB)
make_phi():   0.012631 seconds (8.20 k allocations: 238.016 KiB)
  0.188964 seconds (121.94 k allocations: 5.916 MiB)
tskip:       2.1e-5 sec (0 allocations: 0 byte, 0.0% gc time)
tread:       0.002436 sec (20 allocations: 2.188 KB, 0.0% gc time)
tmultphi:    0.037216 sec (26.146 k allocations: 1.344 MB, 0.0% gc time)
tbrfft:      0.006012 sec (896 allocations: 42.0 KB, 0.0% gc time)
tmultprefac: 0.003151 sec (0 allocations: 0 byte, 0.0% gc time)
toutfunc:    0.140049 sec (94.228 k allocations: 4.459 MB, 0.0% gc time)
Testing R=1.1 ... passed
Calculating fmax: 
  dlrec    = 4
  dlrecRg1 = -4
  q=1.1, R=1.0:	  0.014944 seconds (4.81 k allocations: 3.569 MiB)

  0.018138 seconds (4.87 k allocations: 3.601 MiB)
ℓ = 1202
Δℓ = 4
ΔℓRg1 = -4
N = 1600
q = 1.1
kmin = 1.0e-5
kmax = 100000.00000000004
χ0 = 0.023029999999999995
RR = RR.tsv
ℓmax = ℓmax.bin
f21 = f21.bin
kmin = 1.0e-5
kmax = 100000.0
dlrec    = 4
dlrecRg1 = -4
Output size: 61465536 bytes = 0.05724424123764038 GiB
Output size: 51264 bytes = 4.774332046508789e-5 GiB
Reading 'out/F21EllCache'...   0.001255 seconds (271 allocations: 84.719 KiB)
ellmax: 1202
lmaxcache: 1202
fell[:,1,1] = Complex{Float64}[809.6031528389767 - 1.9829558194077161e-13im, 0.0 + 0.0im]
ell 1202, elapsed: 7.009506225585938e-5
ell 1201, elapsed: 0.014943122863769531
ell 1200, elapsed: 0.0004210472106933594
ell 1199, elapsed: 0.0006341934204101562
ell 1198, elapsed: 0.0005879402160644531
ell 1197, elapsed: 0.000453948974609375
ell 1196, elapsed: 0.00047206878662109375
ell 1195, elapsed: 0.0005490779876708984
ell 1194, elapsed: 0.00044918060302734375
ell 1193, elapsed: 0.0005481243133544922
ell 1192, elapsed: 0.0006349086761474609
ell 1191, elapsed: 0.0005731582641601562
ell 1190, elapsed: 0.000453948974609375
ell 1189, elapsed: 0.0007979869842529297
ell 1188, elapsed: 0.0006082057952880859
ell 1187, elapsed: 0.0005600452423095703
ell 1186, elapsed: 0.0006051063537597656
ell 1185, elapsed: 0.0005948543548583984
ell 1184, elapsed: 0.0006639957427978516
ell 1183, elapsed: 0.0005590915679931641
ell 1182, elapsed: 0.0004298686981201172
ell 1181, elapsed: 0.0005650520324707031
ell 1180, elapsed: 0.0004360675811767578
ell 1179, elapsed: 0.0005400180816650391
ell 1178, elapsed: 0.0004489421844482422
ell 1177, elapsed: 0.0005719661712646484
ell 1176, elapsed: 0.00043511390686035156
ell 1175, elapsed: 0.0005578994750976562
ell 1174, elapsed: 0.00045490264892578125
ell 1173, elapsed: 0.0005369186401367188
ell 1172, elapsed: 0.00041985511779785156
ell 1171, elapsed: 0.0005750656127929688
ell 1170, elapsed: 0.0005939006805419922
ell 1169, elapsed: 0.0005578994750976562
ell 1168, elapsed: 0.0005450248718261719
ell 1167, elapsed: 0.0007660388946533203
ell 1166, elapsed: 0.0004761219024658203
ell 1165, elapsed: 0.0005548000335693359
ell 1164, elapsed: 0.0004470348358154297
ell 1163, elapsed: 0.0005240440368652344
ell 1162, elapsed: 0.0004360675811767578
ell 1161, elapsed: 0.0005548000335693359
ell 1160, elapsed: 0.0006139278411865234
ell 1159, elapsed: 0.0005550384521484375
ell 1158, elapsed: 0.00044798851013183594
ell 1157, elapsed: 0.0005590915679931641
ell 1156, elapsed: 0.00045800209045410156
ell 1155, elapsed: 0.0005490779876708984
ell 1154, elapsed: 0.00042510032653808594
ell 1153, elapsed: 0.0005371570587158203
ell 1152, elapsed: 0.0004291534423828125
ell 1151, elapsed: 0.0007421970367431641
ell 1150, elapsed: 0.0004379749298095703
ell 1149, elapsed: 0.0005409717559814453
ell 1148, elapsed: 0.0004448890686035156
ell 1147, elapsed: 0.0005269050598144531
ell 1146, elapsed: 0.0004439353942871094
ell 1145, elapsed: 0.0005338191986083984
ell 1144, elapsed: 0.00044798851013183594
ell 1143, elapsed: 0.0005691051483154297
ell 1142, elapsed: 0.0004279613494873047
ell 1141, elapsed: 0.000537872314453125
ell 1140, elapsed: 0.0004439353942871094
ell 1139, elapsed: 0.00047707557678222656
ell 1138, elapsed: 0.0003829002380371094
ell 1137, elapsed: 0.0006508827209472656
ell 1136, elapsed: 0.00049591064453125
ell 1135, elapsed: 0.00045990943908691406
ell 1134, elapsed: 0.0003750324249267578
ell 1133, elapsed: 0.00046515464782714844
ell 1132, elapsed: 0.0003910064697265625
ell 1131, elapsed: 0.0004642009735107422
ell 1130, elapsed: 0.0003769397735595703
ell 1129, elapsed: 0.00045990943908691406
ell 1128, elapsed: 0.00037789344787597656
ell 1127, elapsed: 0.00045299530029296875
ell 1126, elapsed: 0.00037789344787597656
ell 1125, elapsed: 0.0004611015319824219
ell 1124, elapsed: 0.0004050731658935547
ell 1123, elapsed: 0.0004551410675048828
ell 1122, elapsed: 0.00036907196044921875
ell 1121, elapsed: 0.0004551410675048828
ell 1120, elapsed: 0.00037097930908203125
ell 1119, elapsed: 0.0004658699035644531
ell 1118, elapsed: 0.00037789344787597656
ell 1117, elapsed: 0.0004611015319824219
ell 1116, elapsed: 0.0003771781921386719
ell 1115, elapsed: 0.0004639625549316406
ell 1114, elapsed: 0.0003669261932373047
ell 1113, elapsed: 0.0004570484161376953
ell 1112, elapsed: 0.00036787986755371094
ell 1111, elapsed: 0.0006020069122314453
ell 1110, elapsed: 0.00043511390686035156
ell 1109, elapsed: 0.0004661083221435547
ell 1108, elapsed: 0.00040411949157714844
ell 1107, elapsed: 0.0004558563232421875
ell 1106, elapsed: 0.00037288665771484375
ell 1105, elapsed: 0.0004620552062988281
ell 1104, elapsed: 0.0003669261932373047
ell 1103, elapsed: 0.0004658699035644531
ell 1102, elapsed: 0.00037407875061035156
ell 1101, elapsed: 0.0004611015319824219
ell 1100, elapsed: 0.0003681182861328125
ell 1099, elapsed: 0.0004730224609375
ell 1098, elapsed: 0.0003771781921386719
ell 1097, elapsed: 0.00046515464782714844
ell 1096, elapsed: 0.00037479400634765625
ell 1095, elapsed: 0.00045299530029296875
ell 1094, elapsed: 0.000370025634765625
ell 1093, elapsed: 0.0006568431854248047
ell 1092, elapsed: 0.0003998279571533203
ell 1091, elapsed: 0.0004589557647705078
ell 1090, elapsed: 0.00037384033203125
ell 1089, elapsed: 0.0004630088806152344
ell 1088, elapsed: 0.0003750324249267578
ell 1087, elapsed: 0.0004639625549316406
ell 1086, elapsed: 0.00037598609924316406
ell 1085, elapsed: 0.0004680156707763672
ell 1084, elapsed: 0.0003571510314941406
ell 1083, elapsed: 0.0004849433898925781
ell 1082, elapsed: 0.0003769397735595703
ell 1081, elapsed: 0.0004639625549316406
ell 1080, elapsed: 0.0003719329833984375
ell 1079, elapsed: 0.0004601478576660156
ell 1078, elapsed: 0.0003750324249267578
ell 1077, elapsed: 0.0004649162292480469
ell 1076, elapsed: 0.00036597251892089844
ell 1075, elapsed: 0.0004889965057373047
ell 1074, elapsed: 0.0004661083221435547
ell 1073, elapsed: 0.0007238388061523438
ell 1072, elapsed: 0.0003960132598876953
ell 1071, elapsed: 0.0004639625549316406
ell 1070, elapsed: 0.00037288665771484375
ell 1069, elapsed: 0.00046896934509277344
ell 1068, elapsed: 0.00039005279541015625
ell 1067, elapsed: 0.0004661083221435547
ell 1066, elapsed: 0.00037598609924316406
ell 1065, elapsed: 0.0006201267242431641
ell 1064, elapsed: 0.0005970001220703125
ell 1063, elapsed: 0.0005509853363037109
ell 1062, elapsed: 0.0003771781921386719
ell 1061, elapsed: 0.0004630088806152344
ell 1060, elapsed: 0.0005459785461425781
ell 1059, elapsed: 0.0006160736083984375
ell 1058, elapsed: 0.0003788471221923828
ell 1057, elapsed: 0.0004680156707763672
ell 1056, elapsed: 0.0003800392150878906
ell 1055, elapsed: 0.0004558563232421875
ell 1054, elapsed: 0.0005178451538085938
ell 1053, elapsed: 0.0005571842193603516
ell 1052, elapsed: 0.0003809928894042969
ell 1051, elapsed: 0.0004658699035644531
ell 1050, elapsed: 0.0003809928894042969
ell 1049, elapsed: 0.00045680999755859375
ell 1048, elapsed: 0.000370025634765625
ell 1047, elapsed: 0.0004620552062988281
ell 1046, elapsed: 0.00037598609924316406
ell 1045, elapsed: 0.0006699562072753906
ell 1044, elapsed: 0.0004489421844482422
ell 1043, elapsed: 0.00045800209045410156
ell 1042, elapsed: 0.00037384033203125
ell 1041, elapsed: 0.0004601478576660156
ell 1040, elapsed: 0.00037598609924316406
ell 1039, elapsed: 0.0004570484161376953
ell 1038, elapsed: 0.0006499290466308594
ell 1037, elapsed: 0.0004699230194091797
ell 1036, elapsed: 0.00037598609924316406
ell 1035, elapsed: 0.0004661083221435547
ell 1034, elapsed: 0.0003750324249267578
ell 1033, elapsed: 0.0004611015319824219
ell 1032, elapsed: 0.0003719329833984375
ell 1031, elapsed: 0.0004570484161376953
ell 1030, elapsed: 0.00039005279541015625
ell 1029, elapsed: 0.0004642009735107422
ell 1028, elapsed: 0.0003712177276611328
ell 1027, elapsed: 0.00047397613525390625
ell 1026, elapsed: 0.0003731250762939453
ell 1025, elapsed: 0.0004649162292480469
ell 1024, elapsed: 0.00037288665771484375
ell 1023, elapsed: 0.0004661083221435547
ell 1022, elapsed: 0.00040793418884277344
ell 1021, elapsed: 0.0005769729614257812
ell 1020, elapsed: 0.0006279945373535156
ell 1019, elapsed: 0.0005450248718261719
ell 1018, elapsed: 0.0003719329833984375
ell 1017, elapsed: 0.0004761219024658203
ell 1016, elapsed: 0.0003650188446044922
ell 1015, elapsed: 0.0004820823669433594
ell 1014, elapsed: 0.00037789344787597656
ell 1013, elapsed: 0.0004699230194091797
ell 1012, elapsed: 0.00037288665771484375
ell 1011, elapsed: 0.00045800209045410156
ell 1010, elapsed: 0.0003750324249267578
ell 1009, elapsed: 0.0004611015319824219
ell 1008, elapsed: 0.00037384033203125
ell 1007, elapsed: 0.0004658699035644531
ell 1006, elapsed: 0.00039386749267578125
ell 1005, elapsed: 0.00046896934509277344
ell 1004, elapsed: 0.00037384033203125
ell 1003, elapsed: 0.0004620552062988281
ell 1002, elapsed: 0.00036907196044921875
ell 1001, elapsed: 0.0004570484161376953
ell 1000, elapsed: 0.00037407875061035156
ell 999, elapsed: 0.00045800209045410156
ell 998, elapsed: 0.0004069805145263672
ell 997, elapsed: 0.0004649162292480469
ell 996, elapsed: 0.0003750324249267578
ell 995, elapsed: 0.0004591941833496094
ell 994, elapsed: 0.00037407875061035156
ell 993, elapsed: 0.00045990943908691406
ell 992, elapsed: 0.00037598609924316406
ell 991, elapsed: 0.0004589557647705078
ell 990, elapsed: 0.00039196014404296875
ell 989, elapsed: 0.0004642009735107422
ell 988, elapsed: 0.0003790855407714844
ell 987, elapsed: 0.0004620552062988281
ell 986, elapsed: 0.00037288665771484375
ell 985, elapsed: 0.0004649162292480469
ell 984, elapsed: 0.0003762245178222656
ell 983, elapsed: 0.0004620552062988281
ell 982, elapsed: 0.00037598609924316406
ell 981, elapsed: 0.0004940032958984375
ell 980, elapsed: 0.00037789344787597656
ell 979, elapsed: 0.00045490264892578125
ell 978, elapsed: 0.0003809928894042969
ell 977, elapsed: 0.0004591941833496094
ell 976, elapsed: 0.0003750324249267578
ell 975, elapsed: 0.00045800209045410156
ell 974, elapsed: 0.00037598609924316406
ell 973, elapsed: 0.0004799365997314453
ell 972, elapsed: 0.0003719329833984375
ell 971, elapsed: 0.0004630088806152344
ell 970, elapsed: 0.00036907196044921875
ell 969, elapsed: 0.0004620552062988281
ell 968, elapsed: 0.00037407875061035156
ell 967, elapsed: 0.0004639625549316406
ell 966, elapsed: 0.0003731250762939453
ell 965, elapsed: 0.0004961490631103516
ell 964, elapsed: 0.00037407875061035156
ell 963, elapsed: 0.00047087669372558594
ell 962, elapsed: 0.0003719329833984375
ell 961, elapsed: 0.0004589557647705078
ell 960, elapsed: 0.0003731250762939453
ell 959, elapsed: 0.0004570484161376953
ell 958, elapsed: 0.00037407875061035156
ell 957, elapsed: 0.0004811286926269531
ell 956, elapsed: 0.0003750324249267578
ell 955, elapsed: 0.0004639625549316406
ell 954, elapsed: 0.00037384033203125
ell 953, elapsed: 0.0004699230194091797
ell 952, elapsed: 0.0003859996795654297
ell 951, elapsed: 0.00046515464782714844
ell 950, elapsed: 0.00037598609924316406
ell 949, elapsed: 0.00045609474182128906
ell 948, elapsed: 0.001157999038696289
ell 947, elapsed: 0.0004658699035644531
ell 946, elapsed: 0.0003781318664550781
ell 945, elapsed: 0.0004680156707763672
ell 944, elapsed: 0.0003769397735595703
ell 943, elapsed: 0.0004608631134033203
ell 942, elapsed: 0.00038886070251464844
ell 941, elapsed: 0.00046896934509277344
ell 940, elapsed: 0.0003800392150878906
ell 939, elapsed: 0.0004699230194091797
ell 938, elapsed: 0.0003769397735595703
ell 937, elapsed: 0.00046706199645996094
ell 936, elapsed: 0.00037598609924316406
ell 935, elapsed: 0.00046896934509277344
ell 934, elapsed: 0.00037384033203125
ell 933, elapsed: 0.0006530284881591797
ell 932, elapsed: 0.00044083595275878906
ell 931, elapsed: 0.0004849433898925781
ell 930, elapsed: 0.00037789344787597656
ell 929, elapsed: 0.0004620552062988281
ell 928, elapsed: 0.0003769397735595703
ell 927, elapsed: 0.0004658699035644531
ell 926, elapsed: 0.00039005279541015625
ell 925, elapsed: 0.0004601478576660156
ell 924, elapsed: 0.00037407875061035156
ell 923, elapsed: 0.0004699230194091797
ell 922, elapsed: 0.0003819465637207031
ell 921, elapsed: 0.00046706199645996094
ell 920, elapsed: 0.00037789344787597656
ell 919, elapsed: 0.00046181678771972656
ell 918, elapsed: 0.00040912628173828125
ell 917, elapsed: 0.0005869865417480469
ell 916, elapsed: 0.0004730224609375
ell 915, elapsed: 0.0004630088806152344
ell 914, elapsed: 0.0003800392150878906
ell 913, elapsed: 0.0006101131439208984
ell 912, elapsed: 0.0004570484161376953
ell 911, elapsed: 0.0004851818084716797
ell 910, elapsed: 0.00037980079650878906
ell 909, elapsed: 0.0004630088806152344
ell 908, elapsed: 0.0003731250762939453
ell 907, elapsed: 0.0004639625549316406
ell 906, elapsed: 0.0003809928894042969
ell 905, elapsed: 0.0004649162292480469
ell 904, elapsed: 0.0003819465637207031
ell 903, elapsed: 0.0004611015319824219
ell 902, elapsed: 0.00037097930908203125
ell 901, elapsed: 0.0004570484161376953
ell 900, elapsed: 0.0003750324249267578
ell 899, elapsed: 0.00046706199645996094
ell 898, elapsed: 0.0003719329833984375
ell 897, elapsed: 0.00046706199645996094
ell 896, elapsed: 0.00037407875061035156
ell 895, elapsed: 0.0004699230194091797
ell 894, elapsed: 0.000392913818359375
ell 893, elapsed: 0.0004639625549316406
ell 892, elapsed: 0.0003769397735595703
ell 891, elapsed: 0.00047016143798828125
ell 890, elapsed: 0.0003750324249267578
ell 889, elapsed: 0.0004711151123046875
ell 888, elapsed: 0.0003769397735595703
ell 887, elapsed: 0.00046896934509277344
ell 886, elapsed: 0.0004169940948486328
ell 885, elapsed: 0.00047206878662109375
ell 884, elapsed: 0.00037598609924316406
ell 883, elapsed: 0.0004570484161376953
ell 882, elapsed: 0.00037479400634765625
ell 881, elapsed: 0.0004520416259765625
ell 880, elapsed: 0.0003781318664550781
ell 879, elapsed: 0.0004630088806152344
ell 878, elapsed: 0.0003859996795654297
ell 877, elapsed: 0.0004608631134033203
ell 876, elapsed: 0.0004589557647705078
ell 875, elapsed: 0.0006220340728759766
ell 874, elapsed: 0.00037598609924316406
ell 873, elapsed: 0.0004630088806152344
ell 872, elapsed: 0.0003809928894042969
ell 871, elapsed: 0.0004661083221435547
ell 870, elapsed: 0.0004100799560546875
ell 869, elapsed: 0.00047397613525390625
ell 868, elapsed: 0.00037407875061035156
ell 867, elapsed: 0.0004639625549316406
ell 866, elapsed: 0.0003800392150878906
ell 865, elapsed: 0.00047206878662109375
ell 864, elapsed: 0.0003781318664550781
ell 863, elapsed: 0.0004649162292480469
ell 862, elapsed: 0.00038909912109375
ell 861, elapsed: 0.0004558563232421875
ell 860, elapsed: 0.00037217140197753906
ell 859, elapsed: 0.0004658699035644531
ell 858, elapsed: 0.0003688335418701172
ell 857, elapsed: 0.00046181678771972656
ell 856, elapsed: 0.0003800392150878906
ell 855, elapsed: 0.00047206878662109375
ell 854, elapsed: 0.0003750324249267578
ell 853, elapsed: 0.0004980564117431641
ell 852, elapsed: 0.0003821849822998047
ell 851, elapsed: 0.0004639625549316406
ell 850, elapsed: 0.0003800392150878906
ell 849, elapsed: 0.00046706199645996094
ell 848, elapsed: 0.0003790855407714844
ell 847, elapsed: 0.0004608631134033203
ell 846, elapsed: 0.0003781318664550781
ell 845, elapsed: 0.0004799365997314453
ell 844, elapsed: 0.0003781318664550781
ell 843, elapsed: 0.0004699230194091797
ell 842, elapsed: 0.00037789344787597656
ell 841, elapsed: 0.0004749298095703125
ell 840, elapsed: 0.0003859996795654297
ell 839, elapsed: 0.00047206878662109375
ell 838, elapsed: 0.0003821849822998047
ell 837, elapsed: 0.00049591064453125
ell 836, elapsed: 0.00037598609924316406
ell 835, elapsed: 0.0004630088806152344
ell 834, elapsed: 0.0004971027374267578
ell 833, elapsed: 0.0005688667297363281
ell 832, elapsed: 0.0003731250762939453
ell 831, elapsed: 0.0004520416259765625
ell 830, elapsed: 0.0003769397735595703
ell 829, elapsed: 0.0004792213439941406
ell 828, elapsed: 0.00037407875061035156
ell 827, elapsed: 0.00045990943908691406
ell 826, elapsed: 0.000370025634765625
ell 825, elapsed: 0.0004658699035644531
ell 824, elapsed: 0.0003771781921386719
ell 823, elapsed: 0.0006091594696044922
ell 822, elapsed: 0.0004749298095703125
ell 821, elapsed: 0.0004680156707763672
ell 820, elapsed: 0.0003800392150878906
ell 819, elapsed: 0.00046515464782714844
ell 818, elapsed: 0.00037598609924316406
ell 817, elapsed: 0.0004639625549316406
ell 816, elapsed: 0.0003712177276611328
ell 815, elapsed: 0.0004591941833496094
ell 814, elapsed: 0.0005359649658203125
ell 813, elapsed: 0.0005159378051757812
ell 812, elapsed: 0.00037097930908203125
ell 811, elapsed: 0.0006549358367919922
ell 810, elapsed: 0.0004780292510986328
ell 809, elapsed: 0.0004520416259765625
ell 808, elapsed: 0.000370025634765625
ell 807, elapsed: 0.0004630088806152344
ell 806, elapsed: 0.0005509853363037109
ell 805, elapsed: 0.0004661083221435547
ell 804, elapsed: 0.00037217140197753906
ell 803, elapsed: 0.0004630088806152344
ell 802, elapsed: 0.00036978721618652344
ell 801, elapsed: 0.0004601478576660156
ell 800, elapsed: 0.00037789344787597656
ell 799, elapsed: 0.00047206878662109375
ell 798, elapsed: 0.0004100799560546875
ell 797, elapsed: 0.0004639625549316406
ell 796, elapsed: 0.00037217140197753906
ell 795, elapsed: 0.0004589557647705078
ell 794, elapsed: 0.0003669261932373047
ell 793, elapsed: 0.0004589557647705078
ell 792, elapsed: 0.0004990100860595703
ell 791, elapsed: 0.0005562305450439453
ell 790, elapsed: 0.0005359649658203125
ell 789, elapsed: 0.0005230903625488281
ell 788, elapsed: 0.00037598609924316406
ell 787, elapsed: 0.00047016143798828125
ell 786, elapsed: 0.00037598609924316406
ell 785, elapsed: 0.0004661083221435547
ell 784, elapsed: 0.00036978721618652344
ell 783, elapsed: 0.0005009174346923828
ell 782, elapsed: 0.0003731250762939453
ell 781, elapsed: 0.00046706199645996094
ell 780, elapsed: 0.00037789344787597656
ell 779, elapsed: 0.0004620552062988281
ell 778, elapsed: 0.0003790855407714844
ell 777, elapsed: 0.00044918060302734375
ell 776, elapsed: 0.00036215782165527344
ell 775, elapsed: 0.0004889965057373047
ell 774, elapsed: 0.00037288665771484375
ell 773, elapsed: 0.0004639625549316406
ell 772, elapsed: 0.00037789344787597656
ell 771, elapsed: 0.0004730224609375
ell 770, elapsed: 0.0003731250762939453
ell 769, elapsed: 0.00045800209045410156
ell 768, elapsed: 0.00037407875061035156
ell 767, elapsed: 0.0004639625549316406
ell 766, elapsed: 0.00041294097900390625
ell 765, elapsed: 0.00045680999755859375
ell 764, elapsed: 0.00036787986755371094
ell 763, elapsed: 0.00045609474182128906
ell 762, elapsed: 0.0003619194030761719
ell 761, elapsed: 0.0004630088806152344
ell 760, elapsed: 0.0003731250762939453
ell 759, elapsed: 0.0004589557647705078
ell 758, elapsed: 0.0004057884216308594
ell 757, elapsed: 0.00045990943908691406
ell 756, elapsed: 0.00036907196044921875
ell 755, elapsed: 0.00044989585876464844
ell 754, elapsed: 0.0003650188446044922
ell 753, elapsed: 0.0004470348358154297
ell 752, elapsed: 0.0003669261932373047
ell 751, elapsed: 0.00045680999755859375
ell 750, elapsed: 0.00036787986755371094
ell 749, elapsed: 0.0004990100860595703
ell 748, elapsed: 0.00037598609924316406
ell 747, elapsed: 0.0004611015319824219
ell 746, elapsed: 0.00036907196044921875
ell 745, elapsed: 0.00045108795166015625
ell 744, elapsed: 0.0003650188446044922
ell 743, elapsed: 0.00045180320739746094
ell 742, elapsed: 0.0003669261932373047
ell 741, elapsed: 0.00048613548278808594
ell 740, elapsed: 0.00037217140197753906
ell 739, elapsed: 0.0005600452423095703
ell 738, elapsed: 0.0004799365997314453
ell 737, elapsed: 0.00045800209045410156
ell 736, elapsed: 0.00036978721618652344
ell 735, elapsed: 0.0004589557647705078
ell 734, elapsed: 0.00045990943908691406
ell 733, elapsed: 0.0007381439208984375
ell 732, elapsed: 0.0004069805145263672
ell 731, elapsed: 0.00045609474182128906
ell 730, elapsed: 0.0003719329833984375
ell 729, elapsed: 0.0006201267242431641
ell 728, elapsed: 0.00041794776916503906
ell 727, elapsed: 0.0004570484161376953
ell 726, elapsed: 0.00039696693420410156
ell 725, elapsed: 0.0004589557647705078
ell 724, elapsed: 0.0005288124084472656
ell 723, elapsed: 0.0005140304565429688
ell 722, elapsed: 0.0003750324249267578
ell 721, elapsed: 0.00045680999755859375
ell 720, elapsed: 0.0003750324249267578
ell 719, elapsed: 0.0004658699035644531
ell 718, elapsed: 0.00037598609924316406
ell 717, elapsed: 0.0004630088806152344
ell 716, elapsed: 0.0003681182861328125
ell 715, elapsed: 0.0005769729614257812
ell 714, elapsed: 0.00044798851013183594
ell 713, elapsed: 0.00044918060302734375
ell 712, elapsed: 0.00036406517028808594
ell 711, elapsed: 0.0004439353942871094
ell 710, elapsed: 0.00037479400634765625
ell 709, elapsed: 0.0004639625549316406
ell 708, elapsed: 0.03692889213562012
ell 707, elapsed: 0.0005249977111816406
ell 706, elapsed: 0.00039196014404296875
ell 705, elapsed: 0.0005629062652587891
ell 704, elapsed: 0.0004489421844482422
ell 703, elapsed: 0.0005528926849365234
ell 702, elapsed: 0.0004439353942871094
ell 701, elapsed: 0.0005490779876708984
ell 700, elapsed: 0.0004420280456542969
ell 699, elapsed: 0.0005471706390380859
ell 698, elapsed: 0.0004379749298095703
ell 697, elapsed: 0.0005319118499755859
ell 696, elapsed: 0.0004439353942871094
ell 695, elapsed: 0.0005621910095214844
ell 694, elapsed: 0.0004398822784423828
ell 693, elapsed: 0.0005450248718261719
ell 692, elapsed: 0.0004429817199707031
ell 691, elapsed: 0.0005459785461425781
ell 690, elapsed: 0.0004642009735107422
ell 689, elapsed: 0.0005481243133544922
ell 688, elapsed: 0.0004420280456542969
ell 687, elapsed: 0.0005450248718261719
ell 686, elapsed: 0.0004439353942871094
ell 685, elapsed: 0.0005459785461425781
ell 684, elapsed: 0.0004410743713378906
ell 683, elapsed: 0.000537872314453125
ell 682, elapsed: 0.0004291534423828125
ell 681, elapsed: 0.0005428791046142578
ell 680, elapsed: 0.00043392181396484375
ell 679, elapsed: 0.0005209445953369141
ell 678, elapsed: 0.0004458427429199219
ell 677, elapsed: 0.0004930496215820312
ell 676, elapsed: 0.00040078163146972656
ell 675, elapsed: 0.0004711151123046875
ell 674, elapsed: 0.00037598609924316406
ell 673, elapsed: 0.0004608631134033203
ell 672, elapsed: 0.00037598609924316406
ell 671, elapsed: 0.0004630088806152344
ell 670, elapsed: 0.00037598609924316406
ell 669, elapsed: 0.0004699230194091797
ell 668, elapsed: 0.0003790855407714844
ell 667, elapsed: 0.0004749298095703125
ell 666, elapsed: 0.0003800392150878906
ell 665, elapsed: 0.0004630088806152344
ell 664, elapsed: 0.00038313865661621094
ell 663, elapsed: 0.0004649162292480469
ell 662, elapsed: 0.0003809928894042969
ell 661, elapsed: 0.00046706199645996094
ell 660, elapsed: 0.00037789344787597656
ell 659, elapsed: 0.0004968643188476562
ell 658, elapsed: 0.0003790855407714844
ell 657, elapsed: 0.0004730224609375
ell 656, elapsed: 0.00036787986755371094
ell 655, elapsed: 0.0004520416259765625
ell 654, elapsed: 0.00037288665771484375
ell 653, elapsed: 0.0004668235778808594
ell 652, elapsed: 0.0003790855407714844
ell 651, elapsed: 0.00047588348388671875
ell 650, elapsed: 0.0003769397735595703
ell 649, elapsed: 0.0006239414215087891
ell 648, elapsed: 0.0006201267242431641
ell 647, elapsed: 0.0005190372467041016
ell 646, elapsed: 0.0004489421844482422
ell 645, elapsed: 0.0006389617919921875
ell 644, elapsed: 0.00045490264892578125
ell 643, elapsed: 0.0004839897155761719
ell 642, elapsed: 0.00037407875061035156
ell 641, elapsed: 0.00045800209045410156
ell 640, elapsed: 0.00038504600524902344
ell 639, elapsed: 0.00048613548278808594
ell 638, elapsed: 0.0004019737243652344
ell 637, elapsed: 0.0004711151123046875
ell 636, elapsed: 0.0005588531494140625
ell 635, elapsed: 0.000698089599609375
ell 634, elapsed: 0.0004420280456542969
ell 633, elapsed: 0.0005819797515869141
ell 632, elapsed: 0.0004088878631591797
ell 631, elapsed: 0.0006971359252929688
ell 630, elapsed: 0.0004830360412597656
ell 629, elapsed: 0.0005891323089599609
ell 628, elapsed: 0.0004730224609375
ell 627, elapsed: 0.0006108283996582031
ell 626, elapsed: 0.0005488395690917969
ell 625, elapsed: 0.0006749629974365234
ell 624, elapsed: 0.0005941390991210938
ell 623, elapsed: 0.0004839897155761719
ell 622, elapsed: 0.0004029273986816406
ell 621, elapsed: 0.0006549358367919922
ell 620, elapsed: 0.0004780292510986328
ell 619, elapsed: 0.0004749298095703125
ell 618, elapsed: 0.00046515464782714844
ell 617, elapsed: 0.0006029605865478516
ell 616, elapsed: 0.0004398822784423828
ell 615, elapsed: 0.000576019287109375
ell 614, elapsed: 0.0007269382476806641
ell 613, elapsed: 0.0005650520324707031
ell 612, elapsed: 0.0006690025329589844
ell 611, elapsed: 0.0005929470062255859
ell 610, elapsed: 0.0006880760192871094
ell 609, elapsed: 0.0005040168762207031
ell 608, elapsed: 0.0004899501800537109
ell 607, elapsed: 0.0006749629974365234
ell 606, elapsed: 0.00040793418884277344
ell 605, elapsed: 0.0004749298095703125
ell 604, elapsed: 0.00046515464782714844
ell 603, elapsed: 0.0006270408630371094
ell 602, elapsed: 0.0003991127014160156
ell 601, elapsed: 0.0004730224609375
ell 600, elapsed: 0.00039005279541015625
ell 599, elapsed: 0.0006060600280761719
ell 598, elapsed: 0.000453948974609375
ell 597, elapsed: 0.0006101131439208984
ell 596, elapsed: 0.0004100799560546875
ell 595, elapsed: 0.0005590915679931641
ell 594, elapsed: 0.0005271434783935547
ell 593, elapsed: 0.0004620552062988281
ell 592, elapsed: 0.00038695335388183594
ell 591, elapsed: 0.0006098747253417969
ell 590, elapsed: 0.0004508495330810547
ell 589, elapsed: 0.0004999637603759766
ell 588, elapsed: 0.00039005279541015625
ell 587, elapsed: 0.0006768703460693359
ell 586, elapsed: 0.00046706199645996094
ell 585, elapsed: 0.0006420612335205078
ell 584, elapsed: 0.0005130767822265625
ell 583, elapsed: 0.000614166259765625
ell 582, elapsed: 0.000453948974609375
ell 581, elapsed: 0.0006039142608642578
ell 580, elapsed: 0.0004520416259765625
ell 579, elapsed: 0.0006718635559082031
ell 578, elapsed: 0.0004220008850097656
ell 577, elapsed: 0.00043487548828125
ell 576, elapsed: 0.0003619194030761719
ell 575, elapsed: 0.0005497932434082031
ell 574, elapsed: 0.0005068778991699219
ell 573, elapsed: 0.00047397613525390625
ell 572, elapsed: 0.00038909912109375
ell 571, elapsed: 0.0007121562957763672
ell 570, elapsed: 0.00040602684020996094
ell 569, elapsed: 0.0006761550903320312
ell 568, elapsed: 0.0006990432739257812
ell 567, elapsed: 0.0006139278411865234
ell 566, elapsed: 0.0005609989166259766
ell 565, elapsed: 0.00048804283142089844
ell 564, elapsed: 0.0005171298980712891
ell 563, elapsed: 0.0007238388061523438
ell 562, elapsed: 0.00044608116149902344
ell 561, elapsed: 0.0004391670227050781
ell 560, elapsed: 0.0003910064697265625
ell 559, elapsed: 0.0004608631134033203
ell 558, elapsed: 0.0003821849822998047
ell 557, elapsed: 0.00045609474182128906
ell 556, elapsed: 0.0003809928894042969
ell 555, elapsed: 0.0004642009735107422
ell 554, elapsed: 0.0004150867462158203
ell 553, elapsed: 0.0004661083221435547
ell 552, elapsed: 0.0003979206085205078
ell 551, elapsed: 0.0004680156707763672
ell 550, elapsed: 0.0003838539123535156
ell 549, elapsed: 0.0006098747253417969
ell 548, elapsed: 0.00046896934509277344
ell 547, elapsed: 0.0006730556488037109
ell 546, elapsed: 0.00042510032653808594
ell 545, elapsed: 0.0006639957427978516
ell 544, elapsed: 0.000453948974609375
ell 543, elapsed: 0.00047206878662109375
ell 542, elapsed: 0.0006251335144042969
ell 541, elapsed: 0.0005629062652587891
ell 540, elapsed: 0.0006878376007080078
ell 539, elapsed: 0.0005290508270263672
ell 538, elapsed: 0.0003561973571777344
ell 537, elapsed: 0.0005879402160644531
ell 536, elapsed: 0.0005919933319091797
ell 535, elapsed: 0.0005390644073486328
ell 534, elapsed: 0.00038313865661621094
ell 533, elapsed: 0.00047397613525390625
ell 532, elapsed: 0.0003871917724609375
ell 531, elapsed: 0.0006079673767089844
ell 530, elapsed: 0.00045609474182128906
ell 529, elapsed: 0.00057220458984375
ell 528, elapsed: 0.0004489421844482422
ell 527, elapsed: 0.0006070137023925781
ell 526, elapsed: 0.0003859996795654297
ell 525, elapsed: 0.00046181678771972656
ell 524, elapsed: 0.0004940032958984375
ell 523, elapsed: 0.0005919933319091797
ell 522, elapsed: 0.00039505958557128906
ell 521, elapsed: 0.00045800209045410156
ell 520, elapsed: 0.0003960132598876953
ell 519, elapsed: 0.00047087669372558594
ell 518, elapsed: 0.00039005279541015625
ell 517, elapsed: 0.00047707557678222656
ell 516, elapsed: 0.0003859996795654297
ell 515, elapsed: 0.0004677772521972656
ell 514, elapsed: 0.0003960132598876953
ell 513, elapsed: 0.0004630088806152344
ell 512, elapsed: 0.0003819465637207031
ell 511, elapsed: 0.0004611015319824219
ell 510, elapsed: 0.0003809928894042969
ell 509, elapsed: 0.00045180320739746094
ell 508, elapsed: 0.0003800392150878906
ell 507, elapsed: 0.0006690025329589844
ell 506, elapsed: 0.0003859996795654297
ell 505, elapsed: 0.0005979537963867188
ell 504, elapsed: 0.0004558563232421875
ell 503, elapsed: 0.00046896934509277344
ell 502, elapsed: 0.0004010200500488281
ell 501, elapsed: 0.00047898292541503906
ell 500, elapsed: 0.00038814544677734375
ell 499, elapsed: 0.0004711151123046875
ell 498, elapsed: 0.0003838539123535156
ell 497, elapsed: 0.0004620552062988281
ell 496, elapsed: 0.00038504600524902344
ell 495, elapsed: 0.0004649162292480469
ell 494, elapsed: 0.0003829002380371094
ell 493, elapsed: 0.00046181678771972656
ell 492, elapsed: 0.0003859996795654297
ell 491, elapsed: 0.0004639625549316406
ell 490, elapsed: 0.00039696693420410156
ell 489, elapsed: 0.0004570484161376953
ell 488, elapsed: 0.000392913818359375
ell 487, elapsed: 0.0004611015319824219
ell 486, elapsed: 0.0003521442413330078
ell 485, elapsed: 0.0004420280456542969
ell 484, elapsed: 0.0003669261932373047
ell 483, elapsed: 0.000453948974609375
ell 482, elapsed: 0.0004000663757324219
ell 481, elapsed: 0.00047397613525390625
ell 480, elapsed: 0.0003848075866699219
ell 479, elapsed: 0.0004649162292480469
ell 478, elapsed: 0.00038504600524902344
ell 477, elapsed: 0.0004611015319824219
ell 476, elapsed: 0.00037980079650878906
ell 475, elapsed: 0.00045990943908691406
ell 474, elapsed: 0.00038504600524902344
ell 473, elapsed: 0.0004639625549316406
ell 472, elapsed: 0.0003848075866699219
ell 471, elapsed: 0.0004620552062988281
ell 470, elapsed: 0.00038504600524902344
ell 469, elapsed: 0.0004620552062988281
ell 468, elapsed: 0.0003819465637207031
ell 467, elapsed: 0.0004570484161376953
ell 466, elapsed: 0.0003829002380371094
ell 465, elapsed: 0.0004780292510986328
ell 464, elapsed: 0.00038695335388183594
ell 463, elapsed: 0.0004591941833496094
ell 462, elapsed: 0.0003840923309326172
ell 461, elapsed: 0.00045800209045410156
ell 460, elapsed: 0.0003829002380371094
ell 459, elapsed: 0.0004658699035644531
ell 458, elapsed: 0.0003829002380371094
ell 457, elapsed: 0.00047707557678222656
ell 456, elapsed: 0.00038313865661621094
ell 455, elapsed: 0.0006780624389648438
ell 454, elapsed: 0.00038909912109375
ell 453, elapsed: 0.0004620552062988281
ell 452, elapsed: 0.0004649162292480469
ell 451, elapsed: 0.0004801750183105469
ell 450, elapsed: 0.0003819465637207031
ell 449, elapsed: 0.00047898292541503906
ell 448, elapsed: 0.0003879070281982422
ell 447, elapsed: 0.0004661083221435547
ell 446, elapsed: 0.00038313865661621094
ell 445, elapsed: 0.0004630088806152344
ell 444, elapsed: 0.00038504600524902344
ell 443, elapsed: 0.0004639625549316406
ell 442, elapsed: 0.0003809928894042969
ell 441, elapsed: 0.0004849433898925781
ell 440, elapsed: 0.0005428791046142578
ell 439, elapsed: 0.0007441043853759766
ell 438, elapsed: 0.0005199909210205078
ell 437, elapsed: 0.0006148815155029297
ell 436, elapsed: 0.0004761219024658203
ell 435, elapsed: 0.000492095947265625
ell 434, elapsed: 0.0003879070281982422
ell 433, elapsed: 0.0004630088806152344
ell 432, elapsed: 0.0003838539123535156
ell 431, elapsed: 0.0004611015319824219
ell 430, elapsed: 0.00038313865661621094
ell 429, elapsed: 0.0004661083221435547
ell 428, elapsed: 0.0003879070281982422
ell 427, elapsed: 0.0004570484161376953
ell 426, elapsed: 0.0003859996795654297
ell 425, elapsed: 0.0004429817199707031
ell 424, elapsed: 0.0003521442413330078
ell 423, elapsed: 0.00045990943908691406
ell 422, elapsed: 0.0003848075866699219
ell 421, elapsed: 0.00045990943908691406
ell 420, elapsed: 0.0003790855407714844
ell 419, elapsed: 0.0004661083221435547
ell 418, elapsed: 0.00045609474182128906
ell 417, elapsed: 0.0004649162292480469
ell 416, elapsed: 0.00038504600524902344
ell 415, elapsed: 0.0004987716674804688
ell 414, elapsed: 0.00039196014404296875
ell 413, elapsed: 0.00047206878662109375
ell 412, elapsed: 0.0003910064697265625
ell 411, elapsed: 0.00047087669372558594
ell 410, elapsed: 0.00038886070251464844
ell 409, elapsed: 0.00047898292541503906
ell 408, elapsed: 0.00039196014404296875
ell 407, elapsed: 0.0005719661712646484
ell 406, elapsed: 0.00048804283142089844
ell 405, elapsed: 0.0004849433898925781
ell 404, elapsed: 0.000392913818359375
ell 403, elapsed: 0.0006620883941650391
ell 402, elapsed: 0.0004000663757324219
ell 401, elapsed: 0.0004699230194091797
ell 400, elapsed: 0.00038909912109375
ell 399, elapsed: 0.0004792213439941406
ell 398, elapsed: 0.00039505958557128906
ell 397, elapsed: 0.00047707557678222656
ell 396, elapsed: 0.00039505958557128906
ell 395, elapsed: 0.0005030632019042969
ell 394, elapsed: 0.0003960132598876953
ell 393, elapsed: 0.0004761219024658203
ell 392, elapsed: 0.0004730224609375
ell 391, elapsed: 0.0005810260772705078
ell 390, elapsed: 0.00035119056701660156
ell 389, elapsed: 0.00045013427734375
ell 388, elapsed: 0.0003619194030761719
ell 387, elapsed: 0.0005278587341308594
ell 386, elapsed: 0.0003840923309326172
ell 385, elapsed: 0.0004630088806152344
ell 384, elapsed: 0.0003859996795654297
ell 383, elapsed: 0.00045609474182128906
ell 382, elapsed: 0.00038695335388183594
ell 381, elapsed: 0.0004570484161376953
ell 380, elapsed: 0.0003809928894042969
ell 379, elapsed: 0.0004749298095703125
ell 378, elapsed: 0.0003829002380371094
ell 377, elapsed: 0.0005648136138916016
ell 376, elapsed: 0.0004420280456542969
ell 375, elapsed: 0.0004811286926269531
ell 374, elapsed: 0.000392913818359375
ell 373, elapsed: 0.0005419254302978516
ell 372, elapsed: 0.0003840923309326172
ell 371, elapsed: 0.00049591064453125
ell 370, elapsed: 0.00038695335388183594
ell 369, elapsed: 0.0004630088806152344
ell 368, elapsed: 0.0003819465637207031
ell 367, elapsed: 0.00046181678771972656
ell 366, elapsed: 0.00038504600524902344
ell 365, elapsed: 0.0004589557647705078
ell 364, elapsed: 0.0004930496215820312
ell 363, elapsed: 0.0006029605865478516
ell 362, elapsed: 0.00036597251892089844
ell 361, elapsed: 0.0006468296051025391
ell 360, elapsed: 0.0005660057067871094
ell 359, elapsed: 0.0007259845733642578
ell 358, elapsed: 0.0005669593811035156
ell 357, elapsed: 0.0005660057067871094
ell 356, elapsed: 0.00047397613525390625
ell 355, elapsed: 0.0005929470062255859
ell 354, elapsed: 0.0004589557647705078
ell 353, elapsed: 0.0007300376892089844
ell 352, elapsed: 0.0003681182861328125
ell 351, elapsed: 0.0006301403045654297
ell 350, elapsed: 0.0006499290466308594
ell 349, elapsed: 0.0005240440368652344
ell 348, elapsed: 0.00036597251892089844
ell 347, elapsed: 0.0005888938903808594
ell 346, elapsed: 0.0004711151123046875
ell 345, elapsed: 0.0006389617919921875
ell 344, elapsed: 0.00045299530029296875
ell 343, elapsed: 0.0004799365997314453
ell 342, elapsed: 0.00037598609924316406
ell 341, elapsed: 0.0004630088806152344
ell 340, elapsed: 0.00037598609924316406
ell 339, elapsed: 0.0004611015319824219
ell 338, elapsed: 0.00036787986755371094
ell 337, elapsed: 0.00047779083251953125
ell 336, elapsed: 0.00038695335388183594
ell 335, elapsed: 0.0004839897155761719
ell 334, elapsed: 0.00038504600524902344
ell 333, elapsed: 0.00047898292541503906
ell 332, elapsed: 0.0005650520324707031
ell 331, elapsed: 0.0006120204925537109
ell 330, elapsed: 0.0006051063537597656
ell 329, elapsed: 0.0006539821624755859
ell 328, elapsed: 0.0004899501800537109
ell 327, elapsed: 0.00047707557678222656
ell 326, elapsed: 0.0005571842193603516
ell 325, elapsed: 0.0006577968597412109
ell 324, elapsed: 0.0004718303680419922
ell 323, elapsed: 0.0006320476531982422
ell 322, elapsed: 0.0003819465637207031
ell 321, elapsed: 0.0006430149078369141
ell 320, elapsed: 0.0004570484161376953
ell 319, elapsed: 0.00045418739318847656
ell 318, elapsed: 0.0003910064697265625
ell 317, elapsed: 0.0004639625549316406
ell 316, elapsed: 0.00037598609924316406
ell 315, elapsed: 0.0006110668182373047
ell 314, elapsed: 0.0004630088806152344
ell 313, elapsed: 0.0006639957427978516
ell 312, elapsed: 0.0004661083221435547
ell 311, elapsed: 0.000701904296875
ell 310, elapsed: 0.0005249977111816406
ell 309, elapsed: 0.0007278919219970703
ell 308, elapsed: 0.0005390644073486328
ell 307, elapsed: 0.0006170272827148438
ell 306, elapsed: 0.0005428791046142578
ell 305, elapsed: 0.0007088184356689453
ell 304, elapsed: 0.0004489421844482422
ell 303, elapsed: 0.000659942626953125
ell 302, elapsed: 0.00061798095703125
ell 301, elapsed: 0.0005891323089599609
ell 300, elapsed: 0.0006721019744873047
ell 299, elapsed: 0.0005810260772705078
ell 298, elapsed: 0.0005040168762207031
ell 297, elapsed: 0.0007112026214599609
ell 296, elapsed: 0.0005080699920654297
ell 295, elapsed: 0.0006661415100097656
ell 294, elapsed: 0.0005950927734375
ell 293, elapsed: 0.0005340576171875
ell 292, elapsed: 0.00037407875061035156
ell 291, elapsed: 0.0006709098815917969
ell 290, elapsed: 0.0005660057067871094
ell 289, elapsed: 0.0006909370422363281
ell 288, elapsed: 0.00042319297790527344
ell 287, elapsed: 0.0006518363952636719
ell 286, elapsed: 0.0005018711090087891
ell 285, elapsed: 0.0007431507110595703
ell 284, elapsed: 0.0004780292510986328
ell 283, elapsed: 0.00047016143798828125
ell 282, elapsed: 0.0003790855407714844
ell 281, elapsed: 0.00045609474182128906
ell 280, elapsed: 0.0003731250762939453
ell 279, elapsed: 0.0004410743713378906
ell 278, elapsed: 0.00036787986755371094
ell 277, elapsed: 0.00045013427734375
ell 276, elapsed: 0.0005869865417480469
ell 275, elapsed: 0.0004818439483642578
ell 274, elapsed: 0.00037097930908203125
ell 273, elapsed: 0.0004630088806152344
ell 272, elapsed: 0.0005500316619873047
ell 271, elapsed: 0.0004940032958984375
ell 270, elapsed: 0.0004379749298095703
ell 269, elapsed: 0.0005280971527099609
ell 268, elapsed: 0.0003669261932373047
ell 267, elapsed: 0.0004630088806152344
ell 266, elapsed: 0.00036787986755371094
ell 265, elapsed: 0.0004639625549316406
ell 264, elapsed: 0.0003790855407714844
ell 263, elapsed: 0.0004611015319824219
ell 262, elapsed: 0.00038123130798339844
ell 261, elapsed: 0.0006120204925537109
ell 260, elapsed: 0.0005860328674316406
ell 259, elapsed: 0.0007169246673583984
ell 258, elapsed: 0.0003800392150878906
ell 257, elapsed: 0.00046181678771972656
ell 256, elapsed: 0.0004620552062988281
ell 255, elapsed: 0.0004858970642089844
ell 254, elapsed: 0.00037598609924316406
ell 253, elapsed: 0.0004649162292480469
ell 252, elapsed: 0.00037384033203125
ell 251, elapsed: 0.0004608631134033203
ell 250, elapsed: 0.0004889965057373047
ell 249, elapsed: 0.0007069110870361328
ell 248, elapsed: 0.00042510032653808594
ell 247, elapsed: 0.00045609474182128906
ell 246, elapsed: 0.000370025634765625
ell 245, elapsed: 0.00044989585876464844
ell 244, elapsed: 0.000370025634765625
ell 243, elapsed: 0.0004608631134033203
ell 242, elapsed: 0.0003769397735595703
ell 241, elapsed: 0.0004630088806152344
ell 240, elapsed: 0.0003800392150878906
ell 239, elapsed: 0.0004851818084716797
ell 238, elapsed: 0.0003731250762939453
ell 237, elapsed: 0.0004649162292480469
ell 236, elapsed: 0.0005340576171875
ell 235, elapsed: 0.0005350112915039062
ell 234, elapsed: 0.00036907196044921875
ell 233, elapsed: 0.0004589557647705078
ell 232, elapsed: 0.0005578994750976562
ell 231, elapsed: 0.0005180835723876953
ell 230, elapsed: 0.0003688335418701172
ell 229, elapsed: 0.00045990943908691406
ell 228, elapsed: 0.0003681182861328125
ell 227, elapsed: 0.0004608631134033203
ell 226, elapsed: 0.00037598609924316406
ell 225, elapsed: 0.0004611015319824219
ell 224, elapsed: 0.0003859996795654297
ell 223, elapsed: 0.00045680999755859375
ell 222, elapsed: 0.00037288665771484375
ell 221, elapsed: 0.0004589557647705078
ell 220, elapsed: 0.00037288665771484375
ell 219, elapsed: 0.00047206878662109375
ell 218, elapsed: 0.0003800392150878906
ell 217, elapsed: 0.00047707557678222656
ell 216, elapsed: 0.00037789344787597656
ell 215, elapsed: 0.00045990943908691406
ell 214, elapsed: 0.00037384033203125
ell 213, elapsed: 0.00045609474182128906
ell 212, elapsed: 0.0003769397735595703
ell 211, elapsed: 0.00046896934509277344
ell 210, elapsed: 0.00037598609924316406
ell 209, elapsed: 0.0004630088806152344
ell 208, elapsed: 0.00036787986755371094
ell 207, elapsed: 0.0004730224609375
ell 206, elapsed: 0.00037384033203125
ell 205, elapsed: 0.00045800209045410156
ell 204, elapsed: 0.00037407875061035156
ell 203, elapsed: 0.0004711151123046875
ell 202, elapsed: 0.00037407875061035156
ell 201, elapsed: 0.00046896934509277344
ell 200, elapsed: 0.00043010711669921875
ell 199, elapsed: 0.00047016143798828125
ell 198, elapsed: 0.00037789344787597656
ell 197, elapsed: 0.0004730224609375
ell 196, elapsed: 0.0003769397735595703
ell 195, elapsed: 0.0004680156707763672
ell 194, elapsed: 0.0003771781921386719
ell 193, elapsed: 0.0004680156707763672
ell 192, elapsed: 0.0003941059112548828
ell 191, elapsed: 0.0006048679351806641
ell 190, elapsed: 0.0004341602325439453
ell 189, elapsed: 0.0004639625549316406
ell 188, elapsed: 0.0003819465637207031
ell 187, elapsed: 0.0004611015319824219
ell 186, elapsed: 0.00036597251892089844
ell 185, elapsed: 0.0006120204925537109
ell 184, elapsed: 0.0004379749298095703
ell 183, elapsed: 0.0004661083221435547
ell 182, elapsed: 0.00037097930908203125
ell 181, elapsed: 0.0004630088806152344
ell 180, elapsed: 0.00037789344787597656
ell 179, elapsed: 0.0004761219024658203
ell 178, elapsed: 0.00037789344787597656
ell 177, elapsed: 0.0004649162292480469
ell 176, elapsed: 0.0003769397735595703
ell 175, elapsed: 0.0004680156707763672
ell 174, elapsed: 0.0003750324249267578
ell 173, elapsed: 0.0004620552062988281
ell 172, elapsed: 0.00037407875061035156
ell 171, elapsed: 0.00045990943908691406
ell 170, elapsed: 0.000370025634765625
ell 169, elapsed: 0.0006208419799804688
ell 168, elapsed: 0.0004458427429199219
ell 167, elapsed: 0.0006151199340820312
ell 166, elapsed: 0.00045108795166015625
ell 165, elapsed: 0.0004649162292480469
ell 164, elapsed: 0.00037407875061035156
ell 163, elapsed: 0.0004668235778808594
ell 162, elapsed: 0.0003790855407714844
ell 161, elapsed: 0.00048089027404785156
ell 160, elapsed: 0.00037598609924316406
ell 159, elapsed: 0.0004639625549316406
ell 158, elapsed: 0.00037598609924316406
ell 157, elapsed: 0.0004699230194091797
ell 156, elapsed: 0.0003819465637207031
ell 155, elapsed: 0.0004680156707763672
ell 154, elapsed: 0.0003910064697265625
ell 153, elapsed: 0.00045800209045410156
ell 152, elapsed: 0.00037598609924316406
ell 151, elapsed: 0.0004649162292480469
ell 150, elapsed: 0.0003781318664550781
ell 149, elapsed: 0.0004661083221435547
ell 148, elapsed: 0.0003769397735595703
ell 147, elapsed: 0.0004649162292480469
ell 146, elapsed: 0.00038909912109375
ell 145, elapsed: 0.0004658699035644531
ell 144, elapsed: 0.00037598609924316406
ell 143, elapsed: 0.0004620552062988281
ell 142, elapsed: 0.00037598609924316406
ell 141, elapsed: 0.00047588348388671875
ell 140, elapsed: 0.00037407875061035156
ell 139, elapsed: 0.0004630088806152344
ell 138, elapsed: 0.0003650188446044922
ell 137, elapsed: 0.00046181678771972656
ell 136, elapsed: 0.0003712177276611328
ell 135, elapsed: 0.00046896934509277344
ell 134, elapsed: 0.0003838539123535156
ell 133, elapsed: 0.0004699230194091797
ell 132, elapsed: 0.0003790855407714844
ell 131, elapsed: 0.0004658699035644531
ell 130, elapsed: 0.00037598609924316406
ell 129, elapsed: 0.0004811286926269531
ell 128, elapsed: 0.00037789344787597656
ell 127, elapsed: 0.00046896934509277344
ell 126, elapsed: 0.0003771781921386719
ell 125, elapsed: 0.0004658699035644531
ell 124, elapsed: 0.00037598609924316406
ell 123, elapsed: 0.0004630088806152344
ell 122, elapsed: 0.00036597251892089844
ell 121, elapsed: 0.0004718303680419922
ell 120, elapsed: 0.0003819465637207031
ell 119, elapsed: 0.00046896934509277344
ell 118, elapsed: 0.0003719329833984375
ell 117, elapsed: 0.00046181678771972656
ell 116, elapsed: 0.0003800392150878906
ell 115, elapsed: 0.0006678104400634766
ell 114, elapsed: 0.0004911422729492188
ell 113, elapsed: 0.0004620552062988281
ell 112, elapsed: 0.0003688335418701172
ell 111, elapsed: 0.0004470348358154297
ell 110, elapsed: 0.0003612041473388672
ell 109, elapsed: 0.00043892860412597656
ell 108, elapsed: 0.00036406517028808594
ell 107, elapsed: 0.0004520416259765625
ell 106, elapsed: 0.00037789344787597656
ell 105, elapsed: 0.0004730224609375
ell 104, elapsed: 0.0003781318664550781
ell 103, elapsed: 0.0004799365997314453
ell 102, elapsed: 0.000370025634765625
ell 101, elapsed: 0.0004429817199707031
ell 100, elapsed: 0.00036907196044921875
ell 99, elapsed: 0.0004489421844482422
ell 98, elapsed: 0.00036907196044921875
ell 97, elapsed: 0.0004749298095703125
ell 96, elapsed: 0.00036907196044921875
ell 95, elapsed: 0.0004520416259765625
ell 94, elapsed: 0.00037479400634765625
ell 93, elapsed: 0.0004620552062988281
ell 92, elapsed: 0.0003750324249267578
ell 91, elapsed: 0.00045418739318847656
ell 90, elapsed: 0.0004031658172607422
ell 89, elapsed: 0.0004730224609375
ell 88, elapsed: 0.0004050731658935547
ell 87, elapsed: 0.0004661083221435547
ell 86, elapsed: 0.00039196014404296875
ell 85, elapsed: 0.0004680156707763672
ell 84, elapsed: 0.00038504600524902344
ell 83, elapsed: 0.00045609474182128906
ell 82, elapsed: 0.0003859996795654297
ell 81, elapsed: 0.00047016143798828125
ell 80, elapsed: 0.0005810260772705078
ell 79, elapsed: 0.0007059574127197266
ell 78, elapsed: 0.00042319297790527344
ell 77, elapsed: 0.000453948974609375
ell 76, elapsed: 0.000370025634765625
ell 75, elapsed: 0.00044798851013183594
ell 74, elapsed: 0.0003688335418701172
ell 73, elapsed: 0.00045800209045410156
ell 72, elapsed: 0.0004279613494873047
ell 71, elapsed: 0.0005860328674316406
ell 70, elapsed: 0.00037598609924316406
ell 69, elapsed: 0.00045299530029296875
ell 68, elapsed: 0.000370025634765625
ell 67, elapsed: 0.0004589557647705078
ell 66, elapsed: 0.000370025634765625
ell 65, elapsed: 0.0004661083221435547
ell 64, elapsed: 0.00037097930908203125
ell 63, elapsed: 0.0004489421844482422
ell 62, elapsed: 0.0003669261932373047
ell 61, elapsed: 0.0004520416259765625
ell 60, elapsed: 0.000370025634765625
ell 59, elapsed: 0.0004489421844482422
ell 58, elapsed: 0.00037097930908203125
ell 57, elapsed: 0.0004630088806152344
ell 56, elapsed: 0.000370025634765625
ell 55, elapsed: 0.00045490264892578125
ell 54, elapsed: 0.00037097930908203125
ell 53, elapsed: 0.00044608116149902344
ell 52, elapsed: 0.000370025634765625
ell 51, elapsed: 0.00045800209045410156
ell 50, elapsed: 0.000370025634765625
ell 49, elapsed: 0.0004439353942871094
ell 48, elapsed: 0.00038695335388183594
ell 47, elapsed: 0.00045013427734375
ell 46, elapsed: 0.00037288665771484375
ell 45, elapsed: 0.00044989585876464844
ell 44, elapsed: 0.00036978721618652344
ell 43, elapsed: 0.00044608116149902344
ell 42, elapsed: 0.00037097930908203125
ell 41, elapsed: 0.000453948974609375
ell 40, elapsed: 0.0004169940948486328
ell 39, elapsed: 0.0004429817199707031
ell 38, elapsed: 0.00037407875061035156
ell 37, elapsed: 0.0004489421844482422
ell 36, elapsed: 0.0005371570587158203
ell 35, elapsed: 0.0005068778991699219
ell 34, elapsed: 0.0004379749298095703
ell 33, elapsed: 0.0006270408630371094
ell 32, elapsed: 0.000370025634765625
ell 31, elapsed: 0.00045609474182128906
ell 30, elapsed: 0.0005309581756591797
ell 29, elapsed: 0.0005118846893310547
ell 28, elapsed: 0.00037097930908203125
ell 27, elapsed: 0.0004448890686035156
ell 26, elapsed: 0.0003731250762939453
ell 25, elapsed: 0.0006530284881591797
ell 24, elapsed: 0.00047397613525390625
ell 23, elapsed: 0.0004620552062988281
ell 22, elapsed: 0.0003769397735595703
ell 21, elapsed: 0.00045990943908691406
ell 20, elapsed: 0.0003819465637207031
ell 19, elapsed: 0.00045490264892578125
ell 18, elapsed: 0.0003750324249267578
ell 17, elapsed: 0.0004558563232421875
ell 16, elapsed: 0.00036907196044921875
ell 15, elapsed: 0.00045299530029296875
ell 14, elapsed: 0.0004591941833496094
ell 13, elapsed: 0.0006220340728759766
ell 12, elapsed: 0.00037384033203125
ell 11, elapsed: 0.00045299530029296875
ell 10, elapsed: 0.0004711151123046875
ell 9, elapsed: 0.0006048679351806641
ell 8, elapsed: 0.00037097930908203125
ell 7, elapsed: 0.0006330013275146484
ell 6, elapsed: 0.0004260540008544922
ell 5, elapsed: 0.0004489421844482422
ell 4, elapsed: 0.0003819465637207031
ell 3, elapsed: 0.0005908012390136719
ell 2, elapsed: 0.00048613548278808594
ell 1, elapsed: 0.0004429817199707031
ell 0, elapsed: 0.0003631114959716797
  0.735203 seconds (57.02 k allocations: 2.784 MiB, 4.95% gc time)
elapsed: 0.0009250640869140625
step:          0.067153 sec (0 allocations: 0 byte, 0.0% gc time)
swapping:      0.000857 sec (0 allocations: 0 byte, 0.0% gc time)
calc_Mellell!: 0.010231 sec (0 allocations: 0 byte, 0.0% gc time)
  t0 :  0.002688 sec (0 allocations: 0 byte, 0.0% gc time)
  tm2 : 0.088731 sec (0 allocations: 0 byte, 0.0% gc time)
  tm2s: 0.002041 sec (0 allocations: 0 byte, 0.0% gc time)
  tm4 : 0.23465 sec (0 allocations: 0 byte, 0.0% gc time)
  tp2 : 0.0 sec (0 allocations: 0 byte, 0.0% gc time)
  tp2s: 0.0 sec (0 allocations: 0 byte, 0.0% gc time)
  tp4 : 0.0 sec (0 allocations: 0 byte, 0.0% gc time)
calc_wtdll!:   0.346689 sec (9.879 k allocations: 1.044 MB, 0.0% gc time)
calc_wljj!:    0.042885 sec (689 allocations: 10.766 KB, 0.0% gc time)
mult_prefac!:  0.0 sec (0 allocations: 0 byte, 0.0% gc time)
convert:       0.0 sec (0 allocations: 0 byte, 0.0% gc time)
write:         0.05883 sec (0 allocations: 0 byte, 0.0% gc time)
test_rand_2f1: 0.0 sec (0 allocations: 0 byte, 0.0% gc time)
Closing outfile out/Ml21-cache.bin...   0.019747 seconds
  0.000858 seconds (52 allocations: 28.297 KiB)
make_phi():   0.002594 seconds (8.20 k allocations: 238.016 KiB)
  0.203373 seconds (146.69 k allocations: 3.629 MiB)
tskip:       0.000961 sec (0 allocations: 0 byte, 0.0% gc time)
tread:       0.025505 sec (20 allocations: 10.703 KB, 0.0% gc time)
tmultphi:    0.013847 sec (0 allocations: 0 byte, 0.0% gc time)
tbrfft:      0.045951 sec (9.592 k allocations: 449.625 KB, 0.0% gc time)
tmultprefac: 0.032298 sec (0 allocations: 0 byte, 0.0% gc time)
toutfunc:    0.081663 sec (129.905 k allocations: 2.421 MB, 0.0% gc time)
Testing R=1.0 ... passed
Calculating fmax: 
  dlrec    = 4
  dlrecRg1 = -4
  q=1.1, R=0.9:	  0.582932 seconds (149.41 k allocations: 69.863 MiB, 4.96% gc time)

  0.583250 seconds (149.47 k allocations: 69.895 MiB, 4.96% gc time)
ℓ = 1202
Δℓ = 4
ΔℓRg1 = -4
N = 1600
q = 1.1
kmin = 1.0e-5
kmax = 100000.00000000004
χ0 = 0.023029999999999995
RR = RR.tsv
ℓmax = ℓmax.bin
f21 = f21.bin
kmin = 1.0e-5
kmax = 100000.0
dlrec    = 4
dlrecRg1 = -4
Output size: 5741568 bytes = 0.005347251892089844 GiB
Output size: 51264 bytes = 4.774332046508789e-5 GiB
Reading 'out/F21EllCache'...   0.001368 seconds (271 allocations: 84.719 KiB)
ellmax: 1202
lmaxcache: 1202
fell[:,1,1] = Complex{Float64}[1.3482014726274674e-57 - 3.302141236118086e-73im, 1.357860004724329e-57 - 3.3257978169518355e-73im]
ell 1202, elapsed: 0.00010895729064941406
ell 1201, elapsed: 0.0005190372467041016
ell 1200, elapsed: 0.0005028247833251953
ell 1199, elapsed: 0.0004918575286865234
ell 1198, elapsed: 0.0005359649658203125
ell 1002, elapsed: 0.010250091552734375
ell 1001, elapsed: 0.000408172607421875
ell 1000, elapsed: 0.0003349781036376953
ell 999, elapsed: 0.0003368854522705078
ell 998, elapsed: 0.0003540515899658203
ell 902, elapsed: 0.0054399967193603516
ell 901, elapsed: 0.0003619194030761719
ell 900, elapsed: 0.000347137451171875
ell 899, elapsed: 0.00033783912658691406
ell 898, elapsed: 0.0003521442413330078
ell 802, elapsed: 0.00555109977722168
ell 801, elapsed: 0.0003590583801269531
ell 800, elapsed: 0.0003409385681152344
ell 799, elapsed: 0.0005090236663818359
ell 798, elapsed: 0.0005040168762207031
ell 702, elapsed: 0.005497932434082031
ell 701, elapsed: 0.0006868839263916016
ell 700, elapsed: 0.0004589557647705078
ell 699, elapsed: 0.0003628730773925781
ell 698, elapsed: 0.0004558563232421875
ell 602, elapsed: 0.005172014236450195
ell 601, elapsed: 0.0005619525909423828
ell 600, elapsed: 0.00047206878662109375
ell 599, elapsed: 0.00047707557678222656
ell 598, elapsed: 0.0004420280456542969
ell 502, elapsed: 0.005041837692260742
ell 501, elapsed: 0.00039505958557128906
ell 500, elapsed: 0.00043511390686035156
ell 499, elapsed: 0.0003459453582763672
ell 498, elapsed: 0.0005478858947753906
ell 402, elapsed: 0.004993915557861328
ell 401, elapsed: 0.0003600120544433594
ell 400, elapsed: 0.0003371238708496094
ell 399, elapsed: 0.00034308433532714844
ell 398, elapsed: 0.00033402442932128906
ell 302, elapsed: 0.004933834075927734
ell 301, elapsed: 0.0003590583801269531
ell 300, elapsed: 0.0003349781036376953
ell 299, elapsed: 0.00034499168395996094
ell 298, elapsed: 0.0003371238708496094
ell 202, elapsed: 0.0054090023040771484
ell 201, elapsed: 0.0005371570587158203
ell 200, elapsed: 0.00039196014404296875
ell 199, elapsed: 0.0003380775451660156
ell 198, elapsed: 0.0003380775451660156
ell 152, elapsed: 0.0027840137481689453
ell 151, elapsed: 0.0003509521484375
ell 150, elapsed: 0.0003409385681152344
ell 149, elapsed: 0.0003349781036376953
ell 148, elapsed: 0.0003390312194824219
ell 127, elapsed: 0.0015218257904052734
ell 126, elapsed: 0.00035309791564941406
ell 125, elapsed: 0.0003380775451660156
ell 124, elapsed: 0.0003390312194824219
ell 123, elapsed: 0.0003390312194824219
ell 114, elapsed: 0.0008111000061035156
ell 113, elapsed: 0.0003361701965332031
ell 112, elapsed: 0.0003368854522705078
ell 111, elapsed: 0.0003311634063720703
ell 110, elapsed: 0.00033593177795410156
ell 102, elapsed: 0.0008919239044189453
ell 101, elapsed: 0.0003368854522705078
ell 100, elapsed: 0.0003380775451660156
ell 99, elapsed: 0.00033593177795410156
ell 98, elapsed: 0.0003380775451660156
ell 97, elapsed: 0.0003859996795654297
ell 96, elapsed: 0.0004868507385253906
ell 95, elapsed: 0.00037288665771484375
ell 94, elapsed: 0.0004961490631103516
ell 93, elapsed: 0.0003819465637207031
ell 92, elapsed: 0.0004649162292480469
ell 91, elapsed: 0.00037097930908203125
ell 90, elapsed: 0.0004661083221435547
ell 89, elapsed: 0.0003719329833984375
ell 88, elapsed: 0.0004680156707763672
ell 87, elapsed: 0.0003771781921386719
ell 86, elapsed: 0.0004658699035644531
ell 85, elapsed: 0.00037407875061035156
ell 84, elapsed: 0.00047898292541503906
ell 83, elapsed: 0.00039315223693847656
ell 82, elapsed: 0.0006129741668701172
ell 81, elapsed: 0.00043487548828125
ell 80, elapsed: 0.0004658699035644531
ell 79, elapsed: 0.0004761219024658203
ell 78, elapsed: 0.0006082057952880859
ell 77, elapsed: 0.00037097930908203125
ell 76, elapsed: 0.0004749298095703125
ell 75, elapsed: 0.0003731250762939453
ell 74, elapsed: 0.00047707557678222656
ell 73, elapsed: 0.0003819465637207031
ell 72, elapsed: 0.00046896934509277344
ell 71, elapsed: 0.00037288665771484375
ell 70, elapsed: 0.0004839897155761719
ell 69, elapsed: 0.00037288665771484375
ell 68, elapsed: 0.00047397613525390625
ell 67, elapsed: 0.0003809928894042969
ell 66, elapsed: 0.0005960464477539062
ell 65, elapsed: 0.00044989585876464844
ell 64, elapsed: 0.0004608631134033203
ell 63, elapsed: 0.0005581378936767578
ell 62, elapsed: 0.0005059242248535156
ell 61, elapsed: 0.00037789344787597656
ell 60, elapsed: 0.0004711151123046875
ell 59, elapsed: 0.0003750324249267578
ell 58, elapsed: 0.00046706199645996094
ell 57, elapsed: 0.00037407875061035156
ell 56, elapsed: 0.0004699230194091797
ell 55, elapsed: 0.0003941059112548828
ell 54, elapsed: 0.0004711151123046875
ell 53, elapsed: 0.0003790855407714844
ell 52, elapsed: 0.0004811286926269531
ell 51, elapsed: 0.0003788471221923828
ell 50, elapsed: 0.0004589557647705078
ell 49, elapsed: 0.00037479400634765625
ell 48, elapsed: 0.0004639625549316406
ell 47, elapsed: 0.00038909912109375
ell 46, elapsed: 0.0004630088806152344
ell 45, elapsed: 0.0003750324249267578
ell 44, elapsed: 0.0004611015319824219
ell 43, elapsed: 0.00037097930908203125
ell 42, elapsed: 0.0004680156707763672
ell 41, elapsed: 0.0004038810729980469
ell 40, elapsed: 0.0004627704620361328
ell 39, elapsed: 0.00039505958557128906
ell 38, elapsed: 0.00047516822814941406
ell 37, elapsed: 0.0003879070281982422
ell 36, elapsed: 0.0004699230194091797
ell 35, elapsed: 0.00038695335388183594
ell 34, elapsed: 0.0004811286926269531
ell 33, elapsed: 0.00037789344787597656
ell 32, elapsed: 0.0004749298095703125
ell 31, elapsed: 0.0003972053527832031
ell 30, elapsed: 0.00045800209045410156
ell 29, elapsed: 0.0003731250762939453
ell 28, elapsed: 0.00047397613525390625
ell 27, elapsed: 0.0003769397735595703
ell 26, elapsed: 0.00048089027404785156
ell 25, elapsed: 0.0003809928894042969
ell 24, elapsed: 0.0004699230194091797
ell 23, elapsed: 0.00039505958557128906
ell 22, elapsed: 0.0004839897155761719
ell 21, elapsed: 0.0003769397735595703
ell 20, elapsed: 0.00046515464782714844
ell 19, elapsed: 0.0003750324249267578
ell 18, elapsed: 0.0004658699035644531
ell 17, elapsed: 0.00037789344787597656
ell 16, elapsed: 0.0004680156707763672
ell 15, elapsed: 0.00042510032653808594
ell 14, elapsed: 0.0004711151123046875
ell 13, elapsed: 0.00037598609924316406
ell 12, elapsed: 0.0004639625549316406
ell 11, elapsed: 0.0003809928894042969
ell 10, elapsed: 0.0004661083221435547
ell 9, elapsed: 0.0003800392150878906
ell 8, elapsed: 0.0004639625549316406
ell 7, elapsed: 0.0003800392150878906
ell 6, elapsed: 0.00047588348388671875
ell 5, elapsed: 0.00037789344787597656
ell 4, elapsed: 0.0004680156707763672
ell 3, elapsed: 0.0003771781921386719
ell 2, elapsed: 0.00046706199645996094
ell 1, elapsed: 0.0003750324249267578
ell 0, elapsed: 0.0004620552062988281
  0.140353 seconds (13.00 k allocations: 674.734 KiB)
elapsed: 0.0005080699920654297
step:          0.058652 sec (0 allocations: 0 byte, 0.0% gc time)
swapping:      0.000546 sec (0 allocations: 0 byte, 0.0% gc time)
calc_Mellell!: 0.001566 sec (0 allocations: 0 byte, 0.0% gc time)
  t0 :  0.000445 sec (0 allocations: 0 byte, 0.0% gc time)
  tm2 : 0.012697 sec (0 allocations: 0 byte, 0.0% gc time)
  tm2s: 0.000375 sec (0 allocations: 0 byte, 0.0% gc time)
  tm4 : 0.031563 sec (0 allocations: 0 byte, 0.0% gc time)
  tp2 : 0.0 sec (0 allocations: 0 byte, 0.0% gc time)
  tp2s: 0.0 sec (0 allocations: 0 byte, 0.0% gc time)
  tp4 : 0.0 sec (0 allocations: 0 byte, 0.0% gc time)
calc_wtdll!:   0.045904 sec (1.344 k allocations: 147.0 KB, 0.0% gc time)
calc_wljj!:    0.00383 sec (6 allocations: 96 byte, 0.0% gc time)
mult_prefac!:  0.0 sec (0 allocations: 0 byte, 0.0% gc time)
convert:       0.0 sec (0 allocations: 0 byte, 0.0% gc time)
write:         0.005714 sec (0 allocations: 0 byte, 0.0% gc time)
test_rand_2f1: 0.0 sec (0 allocations: 0 byte, 0.0% gc time)
Closing outfile out/Ml21-cache.bin...   0.002700 seconds
  0.000416 seconds (52 allocations: 28.297 KiB)
make_phi():   0.002539 seconds (8.20 k allocations: 238.016 KiB)
  0.016265 seconds (12.10 k allocations: 322.000 KiB)
tskip:       2.2e-5 sec (0 allocations: 0 byte, 0.0% gc time)
tread:       0.00263 sec (20 allocations: 2.188 KB, 0.0% gc time)
tmultphi:    0.001262 sec (0 allocations: 0 byte, 0.0% gc time)
tbrfft:      0.004267 sec (896 allocations: 42.0 KB, 0.0% gc time)
tmultprefac: 0.003001 sec (0 allocations: 0 byte, 0.0% gc time)
toutfunc:    0.005084 sec (10.528 k allocations: 206.5 KB, 0.0% gc time)
Testing R=0.9 ... passed
Calculating fmax: 
  dlrec    = 4
  dlrecRg1 = -4
  q=1.1, R=0.8:	  0.504858 seconds (145.59 k allocations: 68.095 MiB, 6.28% gc time)

  0.506640 seconds (145.66 k allocations: 68.127 MiB, 6.26% gc time)
ℓ = 1202
Δℓ = 4
ΔℓRg1 = -4
N = 1600
q = 1.1
kmin = 1.0e-5
kmax = 100000.00000000004
χ0 = 0.023029999999999995
RR = RR.tsv
ℓmax = ℓmax.bin
f21 = f21.bin
kmin = 1.0e-5
kmax = 100000.0
dlrec    = 4
dlrecRg1 = -4
Output size: 5741568 bytes = 0.005347251892089844 GiB
Output size: 51264 bytes = 4.774332046508789e-5 GiB
Reading 'out/F21EllCache'...   0.001338 seconds (271 allocations: 84.719 KiB)
ellmax: 1202
lmaxcache: 1202
fell[:,1,1] = Complex{Float64}[7.519068145690986e-120 - 1.8416405474382574e-135im, 7.541664537386155e-120 - 1.847175067190611e-135im]
ell 1202, elapsed: 0.0001380443572998047
ell 1201, elapsed: 0.0004799365997314453
ell 1200, elapsed: 0.0004260540008544922
ell 1199, elapsed: 0.00041103363037109375
ell 1198, elapsed: 0.0004391670227050781
ell 1002, elapsed: 0.009706974029541016
ell 1001, elapsed: 0.0004761219024658203
ell 1000, elapsed: 0.00041604042053222656
ell 999, elapsed: 0.00045108795166015625
ell 998, elapsed: 0.00043487548828125
ell 902, elapsed: 0.0050508975982666016
ell 901, elapsed: 0.000476837158203125
ell 900, elapsed: 0.0004849433898925781
ell 899, elapsed: 0.0004220008850097656
ell 898, elapsed: 0.00042510032653808594
ell 802, elapsed: 0.0054149627685546875
ell 801, elapsed: 0.00047779083251953125
ell 800, elapsed: 0.00043010711669921875
ell 799, elapsed: 0.00035119056701660156
ell 798, elapsed: 0.0003399848937988281
ell 702, elapsed: 0.004996061325073242
ell 701, elapsed: 0.0003619194030761719
ell 700, elapsed: 0.00033211708068847656
ell 699, elapsed: 0.00033283233642578125
ell 698, elapsed: 0.00033593177795410156
ell 602, elapsed: 0.005558013916015625
ell 601, elapsed: 0.0003559589385986328
ell 600, elapsed: 0.0003459453582763672
ell 599, elapsed: 0.0004189014434814453
ell 598, elapsed: 0.00041103363037109375
ell 502, elapsed: 0.004998922348022461
ell 501, elapsed: 0.00045609474182128906
ell 500, elapsed: 0.00043582916259765625
ell 499, elapsed: 0.0004379749298095703
ell 498, elapsed: 0.000640869140625
ell 402, elapsed: 0.005251884460449219
ell 401, elapsed: 0.00037789344787597656
ell 400, elapsed: 0.00036787986755371094
ell 399, elapsed: 0.0003478527069091797
ell 398, elapsed: 0.00043702125549316406
ell 302, elapsed: 0.005651950836181641
ell 301, elapsed: 0.00041103363037109375
ell 300, elapsed: 0.0003960132598876953
ell 299, elapsed: 0.00042700767517089844
ell 298, elapsed: 0.0005130767822265625
ell 202, elapsed: 0.005295991897583008
ell 201, elapsed: 0.0004010200500488281
ell 200, elapsed: 0.0003719329833984375
ell 199, elapsed: 0.0003662109375
ell 198, elapsed: 0.0003631114959716797
ell 152, elapsed: 0.0027010440826416016
ell 151, elapsed: 0.00038695335388183594
ell 150, elapsed: 0.0003819465637207031
ell 149, elapsed: 0.00033211708068847656
ell 148, elapsed: 0.0003349781036376953
ell 127, elapsed: 0.0019121170043945312
ell 126, elapsed: 0.00038504600524902344
ell 125, elapsed: 0.0003590583801269531
ell 124, elapsed: 0.0009398460388183594
ell 123, elapsed: 0.00034308433532714844
ell 114, elapsed: 0.0008671283721923828
ell 113, elapsed: 0.0003819465637207031
ell 112, elapsed: 0.000347137451171875
ell 111, elapsed: 0.0003788471221923828
ell 110, elapsed: 0.0003619194030761719
ell 102, elapsed: 0.0008699893951416016
ell 101, elapsed: 0.00034308433532714844
ell 100, elapsed: 0.00045299530029296875
ell 99, elapsed: 0.0004608631134033203
ell 98, elapsed: 0.00034999847412109375
ell 97, elapsed: 0.0004050731658935547
ell 96, elapsed: 0.0005269050598144531
ell 95, elapsed: 0.00041794776916503906
ell 94, elapsed: 0.0005078315734863281
ell 93, elapsed: 0.00040912628173828125
ell 92, elapsed: 0.00046515464782714844
ell 91, elapsed: 0.0003819465637207031
ell 90, elapsed: 0.0004730224609375
ell 89, elapsed: 0.00037980079650878906
ell 88, elapsed: 0.00046896934509277344
ell 87, elapsed: 0.0003790855407714844
ell 86, elapsed: 0.0004680156707763672
ell 85, elapsed: 0.00039005279541015625
ell 84, elapsed: 0.0005338191986083984
ell 83, elapsed: 0.0004420280456542969
ell 82, elapsed: 0.0005369186401367188
ell 81, elapsed: 0.00043892860412597656
ell 80, elapsed: 0.0008120536804199219
ell 79, elapsed: 0.0006539821624755859
ell 78, elapsed: 0.0005540847778320312
ell 77, elapsed: 0.0004379749298095703
ell 76, elapsed: 0.0005459785461425781
ell 75, elapsed: 0.00043892860412597656
ell 74, elapsed: 0.0005490779876708984
ell 73, elapsed: 0.0004420280456542969
ell 72, elapsed: 0.0005559921264648438
ell 71, elapsed: 0.0004439353942871094
ell 70, elapsed: 0.0005338191986083984
ell 69, elapsed: 0.0004439353942871094
ell 68, elapsed: 0.0005471706390380859
ell 67, elapsed: 0.0004448890686035156
ell 66, elapsed: 0.0005469322204589844
ell 65, elapsed: 0.00045013427734375
ell 64, elapsed: 0.0005550384521484375
ell 63, elapsed: 0.00046706199645996094
ell 62, elapsed: 0.0005359649658203125
ell 61, elapsed: 0.00042819976806640625
ell 60, elapsed: 0.0005309581756591797
ell 59, elapsed: 0.00042700767517089844
ell 58, elapsed: 0.0005691051483154297
ell 57, elapsed: 0.0004360675811767578
ell 56, elapsed: 0.00055694580078125
ell 55, elapsed: 0.00044417381286621094
ell 54, elapsed: 0.0005600452423095703
ell 53, elapsed: 0.0004429817199707031
ell 52, elapsed: 0.0005431175231933594
ell 51, elapsed: 0.0004181861877441406
ell 50, elapsed: 0.0005369186401367188
ell 49, elapsed: 0.00044083595275878906
ell 48, elapsed: 0.0005190372467041016
ell 47, elapsed: 0.0004391670227050781
ell 46, elapsed: 0.00055694580078125
ell 45, elapsed: 0.00045108795166015625
ell 44, elapsed: 0.0005328655242919922
ell 43, elapsed: 0.00043487548828125
ell 42, elapsed: 0.0005409717559814453
ell 41, elapsed: 0.00043511390686035156
ell 40, elapsed: 0.0004978179931640625
ell 39, elapsed: 0.0003809928894042969
[...]
ell 782, elapsed: 0.0015189647674560547
ell 781, elapsed: 0.0007638931274414062
ell 780, elapsed: 0.0007660388946533203
ell 779, elapsed: 0.0007579326629638672
ell 778, elapsed: 0.0007569789886474609
ell 772, elapsed: 0.0015439987182617188
ell 771, elapsed: 0.0007610321044921875
ell 770, elapsed: 0.0007519721984863281
ell 769, elapsed: 0.0007548332214355469
ell 768, elapsed: 0.0007798671722412109
ell 762, elapsed: 0.0015249252319335938
ell 761, elapsed: 0.0007519721984863281
ell 760, elapsed: 0.0007569789886474609
ell 759, elapsed: 0.0007939338684082031
ell 758, elapsed: 0.0007760524749755859
ell 752, elapsed: 0.0017681121826171875
ell 751, elapsed: 0.0007779598236083984
ell 750, elapsed: 0.0007848739624023438
ell 749, elapsed: 0.0007491111755371094
ell 748, elapsed: 0.0007510185241699219
ell 742, elapsed: 0.0015361309051513672
ell 741, elapsed: 0.0007860660552978516
ell 740, elapsed: 0.0007569789886474609
ell 739, elapsed: 0.0007491111755371094
ell 738, elapsed: 0.0007572174072265625
ell 732, elapsed: 0.0015139579772949219
ell 731, elapsed: 0.0007410049438476562
ell 730, elapsed: 0.0007359981536865234
ell 729, elapsed: 0.00074005126953125
ell 728, elapsed: 0.0007328987121582031
ell 722, elapsed: 0.002029895782470703
ell 721, elapsed: 0.0007429122924804688
ell 720, elapsed: 0.0007369518280029297
ell 719, elapsed: 0.0007500648498535156
ell 718, elapsed: 0.0007278919219970703
ell 712, elapsed: 0.001500844955444336
ell 711, elapsed: 0.0007348060607910156
ell 710, elapsed: 0.0007500648498535156
ell 709, elapsed: 0.0007250308990478516
ell 708, elapsed: 0.0007419586181640625
ell 702, elapsed: 0.001499176025390625
ell 701, elapsed: 0.0007519721984863281
ell 700, elapsed: 0.0007488727569580078
ell 699, elapsed: 0.0007319450378417969
ell 698, elapsed: 0.0007290840148925781
ell 692, elapsed: 0.0018320083618164062
ell 691, elapsed: 0.0007529258728027344
ell 690, elapsed: 0.0007579326629638672
ell 689, elapsed: 0.0007371902465820312
ell 688, elapsed: 0.0007481575012207031
ell 682, elapsed: 0.0017631053924560547
ell 681, elapsed: 0.0007560253143310547
ell 680, elapsed: 0.0007359981536865234
ell 679, elapsed: 0.0007259845733642578
ell 678, elapsed: 0.0007719993591308594
ell 672, elapsed: 0.0016400814056396484
ell 671, elapsed: 0.0007741451263427734
ell 670, elapsed: 0.0008139610290527344
ell 669, elapsed: 0.0007810592651367188
ell 668, elapsed: 0.0007569789886474609
ell 662, elapsed: 0.0015590190887451172
ell 661, elapsed: 0.0007569789886474609
ell 660, elapsed: 0.0007171630859375
ell 659, elapsed: 0.0007638931274414062
ell 658, elapsed: 0.0008130073547363281
ell 652, elapsed: 0.0014951229095458984
ell 651, elapsed: 0.0007939338684082031
ell 650, elapsed: 0.0007870197296142578
ell 649, elapsed: 0.0007550716400146484
ell 648, elapsed: 0.0007481575012207031
ell 642, elapsed: 0.004526853561401367
ell 641, elapsed: 0.0007491111755371094
ell 640, elapsed: 0.0007431507110595703
ell 639, elapsed: 0.0007421970367431641
ell 638, elapsed: 0.0007109642028808594
ell 632, elapsed: 0.0014820098876953125
ell 631, elapsed: 0.0007250308990478516
ell 630, elapsed: 0.0007159709930419922
ell 629, elapsed: 0.0007090568542480469
ell 628, elapsed: 0.0007309913635253906
ell 622, elapsed: 0.0014109611511230469
ell 621, elapsed: 0.0007081031799316406
ell 620, elapsed: 0.0007030963897705078
ell 619, elapsed: 0.0007028579711914062
ell 618, elapsed: 0.0007729530334472656
ell 612, elapsed: 0.0015540122985839844
ell 611, elapsed: 0.0008070468902587891
ell 610, elapsed: 0.0008139610290527344
ell 609, elapsed: 0.0007131099700927734
ell 608, elapsed: 0.0007138252258300781
ell 602, elapsed: 0.0014240741729736328
ell 601, elapsed: 0.0008318424224853516
ell 600, elapsed: 0.0007481575012207031
ell 599, elapsed: 0.0007381439208984375
ell 598, elapsed: 0.0007460117340087891
ell 592, elapsed: 0.0015468597412109375
ell 591, elapsed: 0.0007610321044921875
ell 590, elapsed: 0.0007488727569580078
ell 589, elapsed: 0.0007388591766357422
ell 588, elapsed: 0.0007488727569580078
ell 582, elapsed: 0.0017850399017333984
ell 581, elapsed: 0.000743865966796875
ell 580, elapsed: 0.0007200241088867188
ell 579, elapsed: 0.0007300376892089844
ell 578, elapsed: 0.0007708072662353516
ell 572, elapsed: 0.0015919208526611328
ell 571, elapsed: 0.0007810592651367188
ell 570, elapsed: 0.0007669925689697266
ell 569, elapsed: 0.0007898807525634766
ell 568, elapsed: 0.0007290840148925781
ell 562, elapsed: 0.0015158653259277344
ell 561, elapsed: 0.0007240772247314453
ell 560, elapsed: 0.0008249282836914062
ell 559, elapsed: 0.0007200241088867188
ell 558, elapsed: 0.0007340908050537109
ell 552, elapsed: 0.0015380382537841797
ell 551, elapsed: 0.0008668899536132812
ell 550, elapsed: 0.0007669925689697266
ell 549, elapsed: 0.0007231235504150391
ell 548, elapsed: 0.0007121562957763672
ell 542, elapsed: 0.0015940666198730469
ell 541, elapsed: 0.0007679462432861328
ell 540, elapsed: 0.000759124755859375
ell 539, elapsed: 0.0007538795471191406
ell 538, elapsed: 0.004830121994018555
ell 532, elapsed: 0.0015108585357666016
ell 531, elapsed: 0.0007939338684082031
ell 530, elapsed: 0.0008080005645751953
ell 529, elapsed: 0.0007920265197753906
ell 528, elapsed: 0.0007679462432861328
ell 522, elapsed: 0.0015931129455566406
ell 521, elapsed: 0.0007700920104980469
ell 520, elapsed: 0.0008449554443359375
ell 519, elapsed: 0.0008561611175537109
ell 518, elapsed: 0.0007860660552978516
ell 512, elapsed: 0.0015799999237060547
ell 511, elapsed: 0.0008261203765869141
ell 510, elapsed: 0.0007779598236083984
ell 509, elapsed: 0.0007510185241699219
ell 508, elapsed: 0.0007519721984863281
ell 502, elapsed: 0.010008096694946289
ell 501, elapsed: 0.0007748603820800781
ell 500, elapsed: 0.0008001327514648438
ell 499, elapsed: 0.0008120536804199219
ell 498, elapsed: 0.0008690357208251953
ell 492, elapsed: 0.0015728473663330078
ell 491, elapsed: 0.0007982254028320312
ell 490, elapsed: 0.0015959739685058594
ell 489, elapsed: 0.0008649826049804688
ell 488, elapsed: 0.0008778572082519531
ell 482, elapsed: 0.0017130374908447266
ell 481, elapsed: 0.0007851123809814453
ell 480, elapsed: 0.0007600784301757812
ell 479, elapsed: 0.0007550716400146484
ell 478, elapsed: 0.0007579326629638672
ell 472, elapsed: 0.0015730857849121094
ell 471, elapsed: 0.0007460117340087891
ell 470, elapsed: 0.0007538795471191406
ell 469, elapsed: 0.0007500648498535156
ell 468, elapsed: 0.0007910728454589844
ell 462, elapsed: 0.0015850067138671875
ell 461, elapsed: 0.0008180141448974609
ell 460, elapsed: 0.0009751319885253906
ell 459, elapsed: 0.0008029937744140625
ell 458, elapsed: 0.0007250308990478516
ell 452, elapsed: 0.001522064208984375
ell 451, elapsed: 0.0102081298828125
ell 450, elapsed: 0.0007710456848144531
ell 449, elapsed: 0.0007660388946533203
ell 448, elapsed: 0.0008251667022705078
ell 442, elapsed: 0.0018291473388671875
ell 441, elapsed: 0.0007431507110595703
ell 440, elapsed: 0.000743865966796875
ell 439, elapsed: 0.0007340908050537109
ell 438, elapsed: 0.0007290840148925781
ell 432, elapsed: 0.0015537738800048828
ell 431, elapsed: 0.0007350444793701172
ell 430, elapsed: 0.0007348060607910156
ell 429, elapsed: 0.0007429122924804688
ell 428, elapsed: 0.0007739067077636719
ell 422, elapsed: 0.0015411376953125
ell 421, elapsed: 0.0007529258728027344
ell 420, elapsed: 0.0007510185241699219
ell 419, elapsed: 0.0007488727569580078
ell 418, elapsed: 0.0007510185241699219
ell 412, elapsed: 0.009627819061279297
ell 411, elapsed: 0.0007951259613037109
ell 410, elapsed: 0.0007719993591308594
ell 409, elapsed: 0.0007548332214355469
ell 408, elapsed: 0.0007569789886474609
ell 402, elapsed: 0.0014770030975341797
ell 401, elapsed: 0.0007328987121582031
ell 400, elapsed: 0.0007441043853759766
ell 399, elapsed: 0.0008211135864257812
ell 398, elapsed: 0.0007538795471191406
ell 392, elapsed: 0.0015408992767333984
ell 391, elapsed: 0.0007550716400146484
ell 390, elapsed: 0.0007817745208740234
ell 389, elapsed: 0.0007569789886474609
ell 388, elapsed: 0.0007531642913818359
ell 382, elapsed: 0.0015330314636230469
ell 381, elapsed: 0.008919954299926758
ell 380, elapsed: 0.0007889270782470703
ell 379, elapsed: 0.0007719993591308594
ell 378, elapsed: 0.0007560253143310547
ell 372, elapsed: 0.0015909671783447266
ell 371, elapsed: 0.0007488727569580078
ell 370, elapsed: 0.0007410049438476562
ell 369, elapsed: 0.0007340908050537109
ell 368, elapsed: 0.0008490085601806641
ell 362, elapsed: 0.001486063003540039
ell 361, elapsed: 0.0007398128509521484
ell 360, elapsed: 0.0007369518280029297
ell 359, elapsed: 0.0008311271667480469
ell 358, elapsed: 0.0007431507110595703
ell 352, elapsed: 0.001508951187133789
ell 351, elapsed: 0.0007390975952148438
ell 350, elapsed: 0.0009000301361083984
ell 349, elapsed: 0.0007529258728027344
ell 348, elapsed: 0.0007450580596923828
ell 342, elapsed: 0.0015230178833007812
ell 341, elapsed: 0.0008509159088134766
ell 340, elapsed: 0.0007479190826416016
ell 339, elapsed: 0.0007460117340087891
ell 338, elapsed: 0.0007479190826416016
ell 332, elapsed: 0.0019240379333496094
ell 331, elapsed: 0.0007131099700927734
ell 330, elapsed: 0.0007581710815429688
ell 329, elapsed: 0.0007460117340087891
ell 328, elapsed: 0.0008530616760253906
ell 322, elapsed: 0.001528024673461914
ell 321, elapsed: 0.0007522106170654297
ell 320, elapsed: 0.0007610321044921875
ell 319, elapsed: 0.0008370876312255859
ell 318, elapsed: 0.0007429122924804688
ell 312, elapsed: 0.0014910697937011719
ell 311, elapsed: 0.0007460117340087891
ell 310, elapsed: 0.0008640289306640625
ell 309, elapsed: 0.0007431507110595703
ell 308, elapsed: 0.00074005126953125
ell 302, elapsed: 0.001497030258178711
ell 301, elapsed: 0.0008330345153808594
ell 300, elapsed: 0.0007491111755371094
ell 299, elapsed: 0.00074005126953125
ell 298, elapsed: 0.0007369518280029297
ell 292, elapsed: 0.0016160011291503906
ell 291, elapsed: 0.0007691383361816406
ell 290, elapsed: 0.000743865966796875
ell 289, elapsed: 0.0007550716400146484
ell 288, elapsed: 0.0007708072662353516
ell 282, elapsed: 0.0016369819641113281
ell 281, elapsed: 0.0007560253143310547
ell 280, elapsed: 0.0007510185241699219
ell 279, elapsed: 0.0008509159088134766
ell 278, elapsed: 0.0007448196411132812
ell 272, elapsed: 0.0015180110931396484
ell 271, elapsed: 0.0007579326629638672
ell 270, elapsed: 0.0008568763732910156
ell 269, elapsed: 0.0007510185241699219
ell 268, elapsed: 0.0007710456848144531
ell 262, elapsed: 0.0017549991607666016
ell 261, elapsed: 0.0007939338684082031
ell 260, elapsed: 0.0007359981536865234
ell 259, elapsed: 0.0007450580596923828
ell 258, elapsed: 0.0007450580596923828
ell 252, elapsed: 0.0016999244689941406
ell 251, elapsed: 0.000759124755859375
ell 250, elapsed: 0.0007538795471191406
ell 249, elapsed: 0.0007388591766357422
ell 248, elapsed: 0.0008440017700195312
ell 242, elapsed: 0.001528024673461914
ell 241, elapsed: 0.0007610321044921875
ell 240, elapsed: 0.0007479190826416016
ell 239, elapsed: 0.0008571147918701172
ell 238, elapsed: 0.000762939453125
ell 232, elapsed: 0.0015740394592285156
ell 231, elapsed: 0.0007779598236083984
ell 230, elapsed: 0.000843048095703125
ell 229, elapsed: 0.0007419586181640625
ell 228, elapsed: 0.000782012939453125
ell 222, elapsed: 0.0015211105346679688
ell 221, elapsed: 0.0008599758148193359
ell 220, elapsed: 0.0007638931274414062
ell 219, elapsed: 0.0007460117340087891
ell 218, elapsed: 0.0007481575012207031
ell 212, elapsed: 0.0020689964294433594
ell 211, elapsed: 0.0010030269622802734
ell 210, elapsed: 0.0009770393371582031
ell 209, elapsed: 0.0009958744049072266
ell 208, elapsed: 0.0009698867797851562
ell 202, elapsed: 0.0018470287322998047
ell 201, elapsed: 0.0009748935699462891
ell 200, elapsed: 0.0009701251983642578
ell 199, elapsed: 0.000946044921875
ell 198, elapsed: 0.0009739398956298828
ell 192, elapsed: 0.0015139579772949219
ell 191, elapsed: 0.0007760524749755859
ell 190, elapsed: 0.0007531642913818359
ell 189, elapsed: 0.0013120174407958984
ell 188, elapsed: 0.0009379386901855469
ell 182, elapsed: 0.0015358924865722656
ell 181, elapsed: 0.0007700920104980469
ell 180, elapsed: 0.0007488727569580078
ell 179, elapsed: 0.0007331371307373047
ell 178, elapsed: 0.0010352134704589844
ell 172, elapsed: 0.0015079975128173828
ell 171, elapsed: 0.0007522106170654297
ell 170, elapsed: 0.0007631778717041016
ell 169, elapsed: 0.0007779598236083984
ell 168, elapsed: 0.0007619857788085938
ell 162, elapsed: 0.0015599727630615234
ell 161, elapsed: 0.0010941028594970703
ell 160, elapsed: 0.0007419586181640625
ell 159, elapsed: 0.0007410049438476562
ell 158, elapsed: 0.0007581710815429688
ell 152, elapsed: 0.0018379688262939453
ell 151, elapsed: 0.0007598400115966797
ell 150, elapsed: 0.0007419586181640625
ell 149, elapsed: 0.0007610321044921875
ell 148, elapsed: 0.0008230209350585938
ell 142, elapsed: 0.0015759468078613281
ell 141, elapsed: 0.0007851123809814453
ell 140, elapsed: 0.0007679462432861328
ell 139, elapsed: 0.0007510185241699219
ell 138, elapsed: 0.0007479190826416016
ell 132, elapsed: 0.0015099048614501953
ell 131, elapsed: 0.0007610321044921875
ell 130, elapsed: 0.0007789134979248047
ell 129, elapsed: 0.0007450580596923828
ell 128, elapsed: 0.0007431507110595703
ell 122, elapsed: 0.0017359256744384766
ell 121, elapsed: 0.0007710456848144531
ell 120, elapsed: 0.0007557868957519531
ell 119, elapsed: 0.0007519721984863281
ell 118, elapsed: 0.0007498264312744141
ell 112, elapsed: 0.0015299320220947266
ell 111, elapsed: 0.0007479190826416016
ell 110, elapsed: 0.0007481575012207031
ell 109, elapsed: 0.0007410049438476562
ell 108, elapsed: 0.0007431507110595703
ell 102, elapsed: 0.0014181137084960938
ell 101, elapsed: 0.003506898880004883
ell 100, elapsed: 0.0029840469360351562
ell 99, elapsed: 0.003247976303100586
ell 98, elapsed: 0.0032339096069335938
ell 92, elapsed: 0.006104946136474609
ell 91, elapsed: 0.003682851791381836
ell 90, elapsed: 0.0029518604278564453
ell 89, elapsed: 0.003735065460205078
ell 88, elapsed: 0.0032460689544677734
ell 82, elapsed: 0.006147861480712891
ell 81, elapsed: 0.003017902374267578
ell 80, elapsed: 0.003003835678100586
ell 79, elapsed: 0.0030510425567626953
ell 78, elapsed: 0.0025620460510253906
ell 72, elapsed: 0.004694223403930664
ell 71, elapsed: 0.002246856689453125
ell 70, elapsed: 0.0022640228271484375
ell 69, elapsed: 0.002248048782348633
ell 68, elapsed: 0.0022430419921875
ell 62, elapsed: 0.004366874694824219
ell 61, elapsed: 0.0022978782653808594
ell 60, elapsed: 0.0023908615112304688
ell 59, elapsed: 0.002972126007080078
ell 58, elapsed: 0.003253936767578125
ell 52, elapsed: 0.006377220153808594
ell 51, elapsed: 0.0029900074005126953
ell 50, elapsed: 0.003448009490966797
ell 49, elapsed: 0.0036079883575439453
ell 48, elapsed: 0.003242969512939453
ell 42, elapsed: 0.006268978118896484
ell 41, elapsed: 0.0029931068420410156
ell 40, elapsed: 0.0032629966735839844
ell 39, elapsed: 0.0032591819763183594
ell 38, elapsed: 0.003608226776123047
ell 32, elapsed: 0.0058231353759765625
ell 31, elapsed: 0.003337860107421875
ell 30, elapsed: 0.002980947494506836
ell 29, elapsed: 0.0033121109008789062
ell 28, elapsed: 0.003866910934448242
ell 22, elapsed: 0.007294893264770508
ell 21, elapsed: 0.004142045974731445
ell 20, elapsed: 0.003818988800048828
ell 19, elapsed: 0.0033779144287109375
ell 18, elapsed: 0.0037338733673095703
ell 12, elapsed: 0.006102085113525391
ell 11, elapsed: 0.004096031188964844
ell 10, elapsed: 0.003309965133666992
ell 9, elapsed: 0.004282951354980469
ell 8, elapsed: 0.0032198429107666016
  0.812724 seconds (74.13 k allocations: 12.051 MiB, 1.06% gc time)
elapsed: 0.00446009635925293
step:          0.069977 sec (0 allocations: 0 byte, 0.0% gc time)
swapping:      0.00079 sec (0 allocations: 0 byte, 0.0% gc time)
calc_Mellell!: 0.029989 sec (0 allocations: 0 byte, 0.0% gc time)
  t0 :  0.010709 sec (0 allocations: 0 byte, 0.0% gc time)
  tm2 : 0.063516 sec (0 allocations: 0 byte, 0.0% gc time)
  tm2s: 0.009527 sec (0 allocations: 0 byte, 0.0% gc time)
  tm4 : 0.175844 sec (0 allocations: 0 byte, 0.0% gc time)
  tp2 : 0.0 sec (0 allocations: 0 byte, 0.0% gc time)
  tp2s: 0.0 sec (0 allocations: 0 byte, 0.0% gc time)
  tp4 : 0.0 sec (0 allocations: 0 byte, 0.0% gc time)
calc_wtdll!:   0.522527 sec (49.2 k allocations: 11.133 MB, 0.0% gc time)
calc_wljj!:    0.049353 sec (69 allocations: 1.078 KB, 0.0% gc time)
mult_prefac!:  0.0 sec (0 allocations: 0 byte, 0.0% gc time)
convert:       0.0 sec (0 allocations: 0 byte, 0.0% gc time)
write:         0.038363 sec (0 allocations: 0 byte, 0.0% gc time)
test_rand_2f1: 0.0 sec (0 allocations: 0 byte, 0.0% gc time)
Closing outfile out/MlCache/MlCache.bin...   0.000009 seconds
xi, l=0, nu=0:   0.465005 seconds (556.07 k allocations: 27.070 MiB, 6.13% gc time)
xi, l=0, nu=-2:  0.002352 seconds (144 allocations: 149.563 KiB)
Created 'out/xi.tsv'.
  q=1.1, R=0.6:	  1.319226 seconds (373.06 k allocations: 174.511 MiB, 3.40% gc time)
  q=1.1, R=0.7:	  1.202037 seconds (391.29 k allocations: 182.916 MiB, 2.57% gc time)
  q=1.1, R=0.8:	  1.228595 seconds (383.81 k allocations: 179.466 MiB, 2.49% gc time)
  q=1.1, R=0.9:	  1.327518 seconds (376.40 k allocations: 176.056 MiB, 2.29% gc time)
  q=1.1, R=0.998:	 22.294754 seconds (10.67 M allocations: 831.832 MiB, 0.47% gc time)
  q=1.1, R=1.0:	  0.043706 seconds (12.29 k allocations: 9.129 MiB)

ℓ = 1000
Δℓ = 4
ΔℓRg1 = -4
N = 4096
q = 1.1
kmin = 1.0e-5
kmax = 1000.0
χ0 = 0.001
RR = RR.tsv
ℓmax = ℓmax.bin
f21 = f21.bin
kmin = 1.0e-5
kmax = 1000.0
dlrec    = 4
dlrecRg1 = -4
Output size: 1573632 bytes = 0.0014655590057373047 GiB
Output size: 786816 bytes = 0.0007327795028686523 GiB
Reading 'out/F21EllCache'...   0.001671 seconds (272 allocations: 533.594 KiB)
ellmax: 1002
lmaxcache: 1000
fell[:,1,1] = Complex{Float64}[1.7262928128202118e-224 - 4.2281979352226944e-240im, 1.7282693092099662e-224 - 4.233038955177176e-240im]
ell 1002, elapsed: 3.0040740966796875e-5
ell 1001, elapsed: 0.0007719993591308594
ell 1000, elapsed: 0.0007009506225585938
ell 999, elapsed: 0.0056040287017822266
ell 998, elapsed: 0.005623817443847656
ell 44, elapsed: 0.802603006362915
ell 43, elapsed: 0.00572514533996582
ell 42, elapsed: 0.005627155303955078
ell 41, elapsed: 0.0056209564208984375
ell 40, elapsed: 0.005614042282104492
  0.845402 seconds (4.65 k allocations: 318.469 KiB)
elapsed: 0.00690007209777832
step:          0.799562 sec (0 allocations: 0 byte, 0.0% gc time)
swapping:      0.000686 sec (0 allocations: 0 byte, 0.0% gc time)
calc_Mellell!: 0.001111 sec (0 allocations: 0 byte, 0.0% gc time)
  t0 :  0.000422 sec (0 allocations: 0 byte, 0.0% gc time)
  tm2 : 0.009842 sec (0 allocations: 0 byte, 0.0% gc time)
  tm2s: 0.000311 sec (0 allocations: 0 byte, 0.0% gc time)
  tm4 : 0.026736 sec (0 allocations: 0 byte, 0.0% gc time)
  tp2 : 0.0 sec (0 allocations: 0 byte, 0.0% gc time)
  tp2s: 0.0 sec (0 allocations: 0 byte, 0.0% gc time)
  tp4 : 0.0 sec (0 allocations: 0 byte, 0.0% gc time)
calc_wtdll!:   0.037582 sec (480 allocations: 52.5 KB, 0.0% gc time)
calc_wljj!:    0.001225 sec (1 allocations: 16 byte, 0.0% gc time)
mult_prefac!:  0.0 sec (0 allocations: 0 byte, 0.0% gc time)
convert:       0.0 sec (0 allocations: 0 byte, 0.0% gc time)
write:         0.001126 sec (0 allocations: 0 byte, 0.0% gc time)
test_rand_2f1: 0.0 sec (0 allocations: 0 byte, 0.0% gc time)
Closing outfile out/MlCache/MlCache.bin...   0.001393 seconds
  0.643364 seconds (54 allocations: 67.203 KiB)
make_phi():   0.010858 seconds (80 allocations: 276.297 KiB)
  0.003907 seconds (108 allocations: 5.813 KiB)
tskip:       1.0e-6 sec (0 allocations: 0 byte, 0.0% gc time)
tread:       0.000713 sec (20 allocations: 1.328 KB, 0.0% gc time)
tmultphi:    0.000346 sec (0 allocations: 0 byte, 0.0% gc time)
tbrfft:      0.00213 sec (96 allocations: 4.5 KB, 0.0% gc time)
tmultprefac: 0.000707 sec (0 allocations: 0 byte, 0.0% gc time)
toutfunc:    0.000127 sec (0 allocations: 0 byte, 0.0% gc time)
Created 'out/wl42_jj00.tsv'.
Created 'out/wl42_jj02.tsv'.
   Testing TwoFAST tests passed 
