 Resolving package versions...
 Installed Reexport ───────── v0.2.0
 Installed Compat ─────────── v2.2.0
 Installed Conda ──────────── v1.3.0
 Installed BinDeps ────────── v0.8.10
 Installed BinaryProvider ─── v0.5.8
 Installed JSON ───────────── v0.21.0
 Installed AbstractAlgebra ── v0.7.1
 Installed AbstractFFTs ───── v0.5.0
 Installed VersionParsing ─── v1.1.3
 Installed Parsers ────────── v0.3.10
 Installed IncGammaBeta ───── v0.1.0
 Installed FFTW ───────────── v1.1.0
 Installed TwoFAST ────────── v0.1.0
 Installed URIParser ──────── v0.4.0
 Installed Nemo ───────────── v0.15.1
 Installed SpecialFunctions ─ v0.8.0
  Updating `~/.julia/environments/v1.3/Project.toml`
  [0dd23c3e] + TwoFAST v0.1.0
  Updating `~/.julia/environments/v1.3/Manifest.toml`
  [c3fe647b] + AbstractAlgebra v0.7.1
  [621f4979] + AbstractFFTs v0.5.0
  [9e28174c] + BinDeps v0.8.10
  [b99e7846] + BinaryProvider v0.5.8
  [34da2185] + Compat v2.2.0
  [8f4d0f93] + Conda v1.3.0
  [7a1cc6ca] + FFTW v1.1.0
  [5087d2c0] + IncGammaBeta v0.1.0
  [682c06a0] + JSON v0.21.0
  [2edaba10] + Nemo v0.15.1
  [69de0a69] + Parsers v0.3.10
  [189a3867] + Reexport v0.2.0
  [276daf66] + SpecialFunctions v0.8.0
  [0dd23c3e] + TwoFAST v0.1.0
  [30578b45] + URIParser v0.4.0
  [81def892] + VersionParsing v1.1.3
  [2a0f44e3] + Base64 
  [ade2ca70] + Dates 
  [8bb1440f] + DelimitedFiles 
  [8ba89e20] + Distributed 
  [b77e0a4c] + InteractiveUtils 
  [76f85450] + LibGit2 
  [8f399da3] + Libdl 
  [37e2e46d] + LinearAlgebra 
  [56ddb016] + Logging 
  [d6f4376e] + Markdown 
  [a63ad114] + Mmap 
  [44cfe95a] + Pkg 
  [de0858da] + Printf 
  [3fa0cd96] + REPL 
  [9a3f8284] + Random 
  [ea8e919c] + SHA 
  [9e88b42a] + Serialization 
  [1a1011a3] + SharedArrays 
  [6462fe0b] + Sockets 
  [2f01184e] + SparseArrays 
  [10745b16] + Statistics 
  [8dfed614] + Test 
  [cf7118a7] + UUIDs 
  [4ec0a83e] + Unicode 
  Building Conda ───────────→ `~/.julia/packages/Conda/kLXeC/deps/build.log`
  Building FFTW ────────────→ `~/.julia/packages/FFTW/loJ3F/deps/build.log`
  Building Nemo ────────────→ `~/.julia/packages/Nemo/qzx0m/deps/build.log`
  Building SpecialFunctions → `~/.julia/packages/SpecialFunctions/ne2iw/deps/build.log`
   Testing TwoFAST
 Resolving package versions...
 Installed Dierckx ─ v0.4.1
  Building Dierckx → `~/.julia/packages/Dierckx/9SY4A/deps/build.log`
    Status `/tmp/jl_foZx6q/Manifest.toml`
  [c3fe647b] AbstractAlgebra v0.7.1
  [621f4979] AbstractFFTs v0.5.0
  [9e28174c] BinDeps v0.8.10
  [b99e7846] BinaryProvider v0.5.8
  [34da2185] Compat v2.2.0
  [8f4d0f93] Conda v1.3.0
  [39dd38d3] Dierckx v0.4.1
  [7a1cc6ca] FFTW v1.1.0
  [5087d2c0] IncGammaBeta v0.1.0
  [682c06a0] JSON v0.21.0
  [2edaba10] Nemo v0.15.1
  [69de0a69] Parsers v0.3.10
  [189a3867] Reexport v0.2.0
  [276daf66] SpecialFunctions v0.8.0
  [0dd23c3e] TwoFAST v0.1.0
  [30578b45] URIParser v0.4.0
  [81def892] VersionParsing v1.1.3
  [2a0f44e3] Base64  [`@stdlib/Base64`]
  [ade2ca70] Dates  [`@stdlib/Dates`]
  [8bb1440f] DelimitedFiles  [`@stdlib/DelimitedFiles`]
  [8ba89e20] Distributed  [`@stdlib/Distributed`]
  [b77e0a4c] InteractiveUtils  [`@stdlib/InteractiveUtils`]
  [76f85450] LibGit2  [`@stdlib/LibGit2`]
  [8f399da3] Libdl  [`@stdlib/Libdl`]
  [37e2e46d] LinearAlgebra  [`@stdlib/LinearAlgebra`]
  [56ddb016] Logging  [`@stdlib/Logging`]
  [d6f4376e] Markdown  [`@stdlib/Markdown`]
  [a63ad114] Mmap  [`@stdlib/Mmap`]
  [44cfe95a] Pkg  [`@stdlib/Pkg`]
  [de0858da] Printf  [`@stdlib/Printf`]
  [3fa0cd96] REPL  [`@stdlib/REPL`]
  [9a3f8284] Random  [`@stdlib/Random`]
  [ea8e919c] SHA  [`@stdlib/SHA`]
  [9e88b42a] Serialization  [`@stdlib/Serialization`]
  [1a1011a3] SharedArrays  [`@stdlib/SharedArrays`]
  [6462fe0b] Sockets  [`@stdlib/Sockets`]
  [2f01184e] SparseArrays  [`@stdlib/SparseArrays`]
  [10745b16] Statistics  [`@stdlib/Statistics`]
  [8dfed614] Test  [`@stdlib/Test`]
  [cf7118a7] UUIDs  [`@stdlib/UUIDs`]
  [4ec0a83e] Unicode  [`@stdlib/Unicode`]

Welcome to Nemo version 0.15.1

Nemo comes with absolutely no warranty whatsoever


Welcome to Nemo version 0.15.1

Nemo comes with absolutely no warranty whatsoever

Testing ξ(r), ℓ=0, ν=-1 ... passed
Testing ξ(r), ℓ=0, ν=0 ... passed
Testing ξ(r), ℓ=0, ν=1 ... passed
Testing ξ(r), ℓ=0, ν=2 ... passed
Testing ξ(r), ℓ=0, ν=3 ... passed
Testing ξ(r), ℓ=1, ν=0 ... passed
Testing ξ(r), ℓ=1, ν=1 ... passed
Testing ξ(r), ℓ=1, ν=2 ... passed
Testing ξ(r), ℓ=1, ν=3 ... passed
Testing ξ(r), ℓ=2, ν=-1 ... passed
Testing ξ(r), ℓ=2, ν=0 ... passed
Testing ξ(r), ℓ=2, ν=1 ... passed
Testing ξ(r), ℓ=2, ν=2 ... passed
Testing ξ(r), ℓ=2, ν=3 ... passed
Testing ξ(r), ℓ=3, ν=-1 ... passed
Testing ξ(r), ℓ=3, ν=0 ... passed
Testing ξ(r), ℓ=3, ν=1 ... passed
Testing ξ(r), ℓ=3, ν=2 ... passed
Testing ξ(r), ℓ=3, ν=3 ... passed
Testing ξ(r), ℓ=4, ν=-1 ... passed
Testing ξ(r), ℓ=4, ν=0 ... passed
Testing ξ(r), ℓ=4, ν=1 ... passed
Testing ξ(r), ℓ=4, ν=2 ... passed
Testing ξ(r), ℓ=4, ν=3 ... passed
Testing ξ(r) ... passed
Testing ξ′(r) ... passed
Testing ξ″(r) ... passed
Calculating fmax: 
  dlrec    = 4
  dlrecRg1 = -4
  q=1.1, R=1.1:	  3.673635 seconds (1.11 M allocations: 119.131 MiB, 3.27% gc time)

  3.698610 seconds (1.11 M allocations: 119.489 MiB, 3.25% gc time)
ℓ = 1202
Δℓ = 4
ΔℓRg1 = -4
N = 1600
q = 1.1
kmin = 1.0e-5
kmax = 100000.00000000004
χ0 = 0.023029999999999995
RR = RR.tsv
ℓmax = ℓmax.bin
f21 = f21.bin
kmin = 1.0e-5
kmax = 100000.0
dlrec    = 4
dlrecRg1 = -4
Output size: 5741568 bytes = 0.005347251892089844 GiB
Output size: 51264 bytes = 4.774332046508789e-5 GiB
Reading 'out/F21EllCache'...   0.563705 seconds (348.12 k allocations: 17.864 MiB, 3.39% gc time)
ellmax: 1202
lmaxcache: 1202
fell[:,1,1] = Complex{Float64}[3.9583795592771634e-52 - 9.695233714158177e-68im, 3.990121772925759e-52 - 9.772979714843386e-68im]
ell 1202, elapsed: 0.004004955291748047
ell 1201, elapsed: 2.1332499980926514
ell 1200, elapsed: 0.0005171298980712891
ell 1199, elapsed: 0.0005638599395751953
ell 1198, elapsed: 0.0004749298095703125
ell 1002, elapsed: 0.009736061096191406
ell 1001, elapsed: 0.0006539821624755859
ell 1000, elapsed: 0.0005071163177490234
ell 999, elapsed: 0.0005681514739990234
ell 998, elapsed: 0.0005619525909423828
ell 902, elapsed: 0.005053997039794922
ell 901, elapsed: 0.0006208419799804688
ell 900, elapsed: 0.0005278587341308594
ell 899, elapsed: 0.0005750656127929688
ell 898, elapsed: 0.0005230903625488281
ell 802, elapsed: 0.005061149597167969
ell 801, elapsed: 0.0004899501800537109
ell 800, elapsed: 0.0005049705505371094
ell 799, elapsed: 0.00047516822814941406
ell 798, elapsed: 0.00047397613525390625
ell 702, elapsed: 0.005109071731567383
ell 701, elapsed: 0.0005440711975097656
ell 700, elapsed: 0.0004899501800537109
ell 699, elapsed: 0.00048613548278808594
ell 698, elapsed: 0.0005300045013427734
ell 602, elapsed: 0.00540614128112793
ell 601, elapsed: 0.0005619525909423828
ell 600, elapsed: 0.0005431175231933594
ell 599, elapsed: 0.0005209445953369141
ell 598, elapsed: 0.0005109310150146484
ell 502, elapsed: 0.005239963531494141
ell 501, elapsed: 0.0006089210510253906
ell 500, elapsed: 0.0005970001220703125
ell 499, elapsed: 0.0005021095275878906
ell 498, elapsed: 0.0005199909210205078
ell 402, elapsed: 0.005296945571899414
ell 401, elapsed: 0.0005359649658203125
ell 400, elapsed: 0.0005459785461425781
ell 399, elapsed: 0.0005080699920654297
ell 398, elapsed: 0.0005130767822265625
ell 302, elapsed: 0.0053560733795166016
ell 301, elapsed: 0.0008180141448974609
ell 300, elapsed: 0.0005941390991210938
ell 299, elapsed: 0.0006310939788818359
ell 298, elapsed: 0.0005278587341308594
ell 202, elapsed: 0.005202054977416992
ell 201, elapsed: 0.0007979869842529297
ell 200, elapsed: 0.0006320476531982422
ell 199, elapsed: 0.0005331039428710938
ell 198, elapsed: 0.0005459785461425781
ell 152, elapsed: 0.002752065658569336
ell 151, elapsed: 0.0006008148193359375
ell 150, elapsed: 0.0005249977111816406
ell 149, elapsed: 0.0007109642028808594
ell 148, elapsed: 0.0005660057067871094
ell 127, elapsed: 0.001692056655883789
ell 126, elapsed: 0.0005431175231933594
ell 125, elapsed: 0.0005979537963867188
ell 124, elapsed: 0.0004949569702148438
ell 123, elapsed: 0.0006189346313476562
ell 114, elapsed: 0.0009920597076416016
ell 113, elapsed: 0.0005810260772705078
ell 112, elapsed: 0.0005128383636474609
ell 111, elapsed: 0.0005321502685546875
ell 110, elapsed: 0.0005700588226318359
ell 102, elapsed: 0.001049041748046875
ell 101, elapsed: 0.000537872314453125
ell 100, elapsed: 0.0005497932434082031
ell 99, elapsed: 0.0005211830139160156
ell 98, elapsed: 0.0005199909210205078
ell 97, elapsed: 0.0005729198455810547
ell 96, elapsed: 0.000804901123046875
ell 95, elapsed: 0.0005719661712646484
ell 94, elapsed: 0.0006639957427978516
ell 93, elapsed: 0.0006148815155029297
ell 92, elapsed: 0.0006878376007080078
ell 91, elapsed: 0.0005600452423095703
ell 90, elapsed: 0.0006461143493652344
ell 89, elapsed: 0.0005970001220703125
ell 88, elapsed: 0.0006148815155029297
ell 87, elapsed: 0.0005388259887695312
ell 86, elapsed: 0.0006449222564697266
ell 85, elapsed: 0.0005710124969482422
ell 84, elapsed: 0.0006949901580810547
ell 83, elapsed: 0.0005440711975097656
ell 82, elapsed: 0.0006520748138427734
ell 81, elapsed: 0.0005590915679931641
ell 80, elapsed: 0.0006480216979980469
ell 79, elapsed: 0.0005931854248046875
ell 78, elapsed: 0.0006780624389648438
ell 77, elapsed: 0.0005180835723876953
ell 76, elapsed: 0.0005869865417480469
ell 75, elapsed: 0.0005469322204589844
ell 74, elapsed: 0.0005710124969482422
ell 73, elapsed: 0.0005738735198974609
ell 72, elapsed: 0.0006430149078369141
ell 71, elapsed: 0.0005440711975097656
ell 70, elapsed: 0.0007920265197753906
ell 69, elapsed: 0.0005550384521484375
ell 68, elapsed: 0.0006470680236816406
ell 67, elapsed: 0.0005340576171875
ell 66, elapsed: 0.0006399154663085938
ell 65, elapsed: 0.0005400180816650391
ell 64, elapsed: 0.0006229877471923828
ell 63, elapsed: 0.0005581378936767578
ell 62, elapsed: 0.0006189346313476562
ell 61, elapsed: 0.0005340576171875
ell 60, elapsed: 0.0006101131439208984
ell 59, elapsed: 0.0005409717559814453
ell 58, elapsed: 0.0006170272827148438
ell 57, elapsed: 0.0005440711975097656
ell 56, elapsed: 0.0006449222564697266
ell 55, elapsed: 0.0005400180816650391
ell 54, elapsed: 0.0006270408630371094
ell 53, elapsed: 0.0005218982696533203
ell 52, elapsed: 0.0006201267242431641
ell 51, elapsed: 0.0005249977111816406
ell 50, elapsed: 0.0006380081176757812
ell 49, elapsed: 0.0005571842193603516
ell 48, elapsed: 0.0006499290466308594
ell 47, elapsed: 0.0005590915679931641
ell 46, elapsed: 0.0006690025329589844
ell 45, elapsed: 0.0005571842193603516
ell 44, elapsed: 0.0006151199340820312
ell 43, elapsed: 0.0005431175231933594
ell 42, elapsed: 0.0006279945373535156
ell 41, elapsed: 0.0005590915679931641
ell 40, elapsed: 0.0006499290466308594
ell 39, elapsed: 0.0005409717559814453
ell 38, elapsed: 0.0006420612335205078
ell 37, elapsed: 0.0005679130554199219
ell 36, elapsed: 0.0006289482116699219
ell 35, elapsed: 0.0004940032958984375
ell 34, elapsed: 0.0005719661712646484
ell 33, elapsed: 0.0005059242248535156
ell 32, elapsed: 0.00061798095703125
ell 31, elapsed: 0.0005080699920654297
ell 30, elapsed: 0.0005929470062255859
ell 29, elapsed: 0.0004711151123046875
ell 28, elapsed: 0.0005621910095214844
ell 27, elapsed: 0.0004889965057373047
ell 26, elapsed: 0.0005979537963867188
ell 25, elapsed: 0.0005381107330322266
ell 24, elapsed: 0.0006401538848876953
ell 23, elapsed: 0.0005459785461425781
ell 22, elapsed: 0.0006499290466308594
ell 21, elapsed: 0.0006308555603027344
ell 20, elapsed: 0.0006470680236816406
ell 19, elapsed: 0.0005509853363037109
ell 18, elapsed: 0.0006010532379150391
ell 17, elapsed: 0.000492095947265625
ell 16, elapsed: 0.0005748271942138672
ell 15, elapsed: 0.0004918575286865234
ell 14, elapsed: 0.0005688667297363281
ell 13, elapsed: 0.0004930496215820312
ell 12, elapsed: 0.0006310939788818359
ell 11, elapsed: 0.0005230903625488281
ell 10, elapsed: 0.000576019287109375
ell 9, elapsed: 0.000492095947265625
ell 8, elapsed: 0.0005660057067871094
ell 7, elapsed: 0.0004899501800537109
ell 6, elapsed: 0.0005710124969482422
ell 5, elapsed: 0.0004940032958984375
ell 4, elapsed: 0.0006000995635986328
ell 3, elapsed: 0.0005660057067871094
ell 2, elapsed: 0.0009109973907470703
ell 1, elapsed: 0.0005550384521484375
ell 0, elapsed: 0.0006811618804931641
  2.463906 seconds (1.51 M allocations: 74.525 MiB, 0.89% gc time)
elapsed: 0.0009720325469970703
step:          0.645951 sec (478.154 k allocations: 23.745 MB, 0.0% gc time)
swapping:      0.000563 sec (0 allocations: 0 byte, 0.0% gc time)
calc_Mellell!: 0.476411 sec (371.703 k allocations: 18.416 MB, 0.0% gc time)
  t0 :  0.0 sec (0 allocations: 0 byte, 0.0% gc time)
  tm2 : 0.0 sec (0 allocations: 0 byte, 0.0% gc time)
  tm2s: 0.0 sec (0 allocations: 0 byte, 0.0% gc time)
  tm4 : 0.0 sec (0 allocations: 0 byte, 0.0% gc time)
  tp2 : 0.0 sec (0 allocations: 0 byte, 0.0% gc time)
  tp2s: 0.0 sec (0 allocations: 0 byte, 0.0% gc time)
  tp4 : 0.0 sec (0 allocations: 0 byte, 0.0% gc time)
calc_wtdll!:   1.131674 sec (571.762 k allocations: 28.059 MB, 1.93% gc time)
calc_wljj!:    0.003722 sec (6 allocations: 96 byte, 0.0% gc time)
mult_prefac!:  0.0 sec (0 allocations: 0 byte, 0.0% gc time)
convert:       0.0 sec (0 allocations: 0 byte, 0.0% gc time)
write:         0.005437 sec (0 allocations: 0 byte, 0.0% gc time)
test_rand_2f1: 0.0 sec (0 allocations: 0 byte, 0.0% gc time)
Closing outfile out/Ml21-cache.bin...   0.000119 seconds
  1.079840 seconds (8.63 k allocations: 420.063 KiB)
make_phi():   0.012798 seconds (8.20 k allocations: 238.016 KiB)
  0.229775 seconds (121.94 k allocations: 5.915 MiB)
tskip:       2.6e-5 sec (0 allocations: 0 byte, 0.0% gc time)
tread:       0.002845 sec (20 allocations: 2.188 KB, 0.0% gc time)
tmultphi:    0.037904 sec (26.146 k allocations: 1.344 MB, 0.0% gc time)
tbrfft:      0.006216 sec (896 allocations: 42.0 KB, 0.0% gc time)
tmultprefac: 0.004035 sec (0 allocations: 0 byte, 0.0% gc time)
toutfunc:    0.178621 sec (94.224 k allocations: 4.458 MB, 0.0% gc time)
Testing R=1.1 ... passed
Calculating fmax: 
  dlrec    = 4
  dlrecRg1 = -4
  q=1.1, R=1.0:	  0.014618 seconds (4.81 k allocations: 3.569 MiB)

  0.014839 seconds (4.87 k allocations: 3.601 MiB)
ℓ = 1202
Δℓ = 4
ΔℓRg1 = -4
N = 1600
q = 1.1
kmin = 1.0e-5
kmax = 100000.00000000004
χ0 = 0.023029999999999995
RR = RR.tsv
ℓmax = ℓmax.bin
f21 = f21.bin
kmin = 1.0e-5
kmax = 100000.0
dlrec    = 4
dlrecRg1 = -4
Output size: 61465536 bytes = 0.05724424123764038 GiB
Output size: 51264 bytes = 4.774332046508789e-5 GiB
Reading 'out/F21EllCache'...   0.001189 seconds (271 allocations: 84.719 KiB)
ellmax: 1202
lmaxcache: 1202
fell[:,1,1] = Complex{Float64}[809.6031528389767 - 1.9829558194077161e-13im, 0.0 + 0.0im]
ell 1202, elapsed: 2.384185791015625e-5
ell 1201, elapsed: 0.014305830001831055
ell 1200, elapsed: 0.0003609657287597656
ell 1199, elapsed: 0.0003368854522705078
ell 1198, elapsed: 0.0003390312194824219
ell 1197, elapsed: 0.00039196014404296875
ell 1196, elapsed: 0.00039505958557128906
ell 1195, elapsed: 0.0004699230194091797
ell 1194, elapsed: 0.0003771781921386719
ell 1193, elapsed: 0.0004811286926269531
ell 1192, elapsed: 0.0003781318664550781
ell 1191, elapsed: 0.0004668235778808594
ell 1190, elapsed: 0.0003669261932373047
ell 1189, elapsed: 0.00045609474182128906
ell 1188, elapsed: 0.0003800392150878906
ell 1187, elapsed: 0.0004611015319824219
ell 1186, elapsed: 0.00037097930908203125
ell 1185, elapsed: 0.0004661083221435547
ell 1184, elapsed: 0.00047087669372558594
ell 1183, elapsed: 0.0006439685821533203
ell 1182, elapsed: 0.00040602684020996094
ell 1181, elapsed: 0.00045609474182128906
ell 1180, elapsed: 0.0003719329833984375
ell 1179, elapsed: 0.0004570484161376953
ell 1178, elapsed: 0.0003769397735595703
ell 1177, elapsed: 0.00055694580078125
ell 1176, elapsed: 0.00037407875061035156
ell 1175, elapsed: 0.0004677772521972656
ell 1174, elapsed: 0.000370025634765625
ell 1173, elapsed: 0.0004639625549316406
ell 1172, elapsed: 0.000370025634765625
ell 1171, elapsed: 0.00045180320739746094
ell 1170, elapsed: 0.0003731250762939453
ell 1169, elapsed: 0.0004570484161376953
ell 1168, elapsed: 0.00037407875061035156
ell 1167, elapsed: 0.00045800209045410156
ell 1166, elapsed: 0.000370025634765625
ell 1165, elapsed: 0.00045800209045410156
ell 1164, elapsed: 0.00037479400634765625
ell 1163, elapsed: 0.00047397613525390625
ell 1162, elapsed: 0.0003840923309326172
ell 1161, elapsed: 0.000476837158203125
ell 1160, elapsed: 0.0003769397735595703
ell 1159, elapsed: 0.0004630088806152344
ell 1158, elapsed: 0.0003788471221923828
ell 1157, elapsed: 0.00045990943908691406
ell 1156, elapsed: 0.0003750324249267578
ell 1155, elapsed: 0.00048422813415527344
ell 1154, elapsed: 0.00037097930908203125
ell 1153, elapsed: 0.0004820823669433594
ell 1152, elapsed: 0.0004820823669433594
ell 1151, elapsed: 0.00045800209045410156
ell 1150, elapsed: 0.0003871917724609375
ell 1149, elapsed: 0.0004642009735107422
ell 1148, elapsed: 0.000370025634765625
ell 1147, elapsed: 0.0004661083221435547
ell 1146, elapsed: 0.00037384033203125
ell 1145, elapsed: 0.0004839897155761719
ell 1144, elapsed: 0.0006940364837646484
ell 1143, elapsed: 0.0004730224609375
ell 1142, elapsed: 0.0003790855407714844
ell 1141, elapsed: 0.0004551410675048828
ell 1140, elapsed: 0.00037288665771484375
ell 1139, elapsed: 0.00046181678771972656
ell 1138, elapsed: 0.00039005279541015625
ell 1137, elapsed: 0.0008220672607421875
ell 1136, elapsed: 0.0005118846893310547
ell 1135, elapsed: 0.00047087669372558594
ell 1134, elapsed: 0.0003819465637207031
ell 1133, elapsed: 0.00047397613525390625
ell 1132, elapsed: 0.00037598609924316406
ell 1131, elapsed: 0.0004630088806152344
ell 1130, elapsed: 0.0003681182861328125
ell 1129, elapsed: 0.0005428791046142578
ell 1128, elapsed: 0.00037598609924316406
ell 1127, elapsed: 0.0004620552062988281
ell 1126, elapsed: 0.0003781318664550781
ell 1125, elapsed: 0.0004761219024658203
ell 1124, elapsed: 0.0003769397735595703
ell 1123, elapsed: 0.000453948974609375
ell 1122, elapsed: 0.0005960464477539062
ell 1121, elapsed: 0.00045800209045410156
ell 1120, elapsed: 0.00037598609924316406
ell 1119, elapsed: 0.00046515464782714844
ell 1118, elapsed: 0.00036787986755371094
ell 1117, elapsed: 0.0004508495330810547
ell 1116, elapsed: 0.0003628730773925781
ell 1115, elapsed: 0.00045990943908691406
ell 1114, elapsed: 0.0006041526794433594
ell 1113, elapsed: 0.0004639625549316406
ell 1112, elapsed: 0.000370025634765625
ell 1111, elapsed: 0.00045800209045410156
ell 1110, elapsed: 0.00037407875061035156
ell 1109, elapsed: 0.0004589557647705078
ell 1108, elapsed: 0.00036716461181640625
ell 1107, elapsed: 0.00044989585876464844
ell 1106, elapsed: 0.0006191730499267578
ell 1105, elapsed: 0.00047206878662109375
ell 1104, elapsed: 0.0003688335418701172
ell 1103, elapsed: 0.00045299530029296875
ell 1102, elapsed: 0.0003719329833984375
ell 1101, elapsed: 0.00045800209045410156
ell 1100, elapsed: 0.0003769397735595703
ell 1099, elapsed: 0.00045609474182128906
ell 1098, elapsed: 0.0006470680236816406
ell 1097, elapsed: 0.0004649162292480469
ell 1096, elapsed: 0.0003991127014160156
ell 1095, elapsed: 0.00046706199645996094
ell 1094, elapsed: 0.0003719329833984375
ell 1093, elapsed: 0.0004658699035644531
ell 1092, elapsed: 0.0003809928894042969
ell 1091, elapsed: 0.0007369518280029297
ell 1090, elapsed: 0.0003781318664550781
ell 1089, elapsed: 0.0004601478576660156
ell 1088, elapsed: 0.00036787986755371094
ell 1087, elapsed: 0.0004458427429199219
ell 1086, elapsed: 0.0003800392150878906
ell 1085, elapsed: 0.00045800209045410156
ell 1084, elapsed: 0.0003719329833984375
ell 1083, elapsed: 0.0006821155548095703
ell 1082, elapsed: 0.00038695335388183594
ell 1081, elapsed: 0.00047087669372558594
ell 1080, elapsed: 0.00037598609924316406
ell 1079, elapsed: 0.0004570484161376953
ell 1078, elapsed: 0.0003769397735595703
ell 1077, elapsed: 0.00045609474182128906
ell 1076, elapsed: 0.0003809928894042969
ell 1075, elapsed: 0.00047707557678222656
ell 1074, elapsed: 0.00037407875061035156
ell 1073, elapsed: 0.0004620552062988281
ell 1072, elapsed: 0.0003731250762939453
ell 1071, elapsed: 0.0004680156707763672
ell 1070, elapsed: 0.00037407875061035156
ell 1069, elapsed: 0.0004589557647705078
ell 1068, elapsed: 0.0003769397735595703
ell 1067, elapsed: 0.000553131103515625
ell 1066, elapsed: 0.0003790855407714844
ell 1065, elapsed: 0.0004658699035644531
ell 1064, elapsed: 0.0003800392150878906
ell 1063, elapsed: 0.0004718303680419922
ell 1062, elapsed: 0.0003840923309326172
ell 1061, elapsed: 0.00047206878662109375
ell 1060, elapsed: 0.00037288665771484375
ell 1059, elapsed: 0.0004680156707763672
ell 1058, elapsed: 0.0003750324249267578
ell 1057, elapsed: 0.00045108795166015625
ell 1056, elapsed: 0.0003669261932373047
ell 1055, elapsed: 0.00045609474182128906
ell 1054, elapsed: 0.0003688335418701172
ell 1053, elapsed: 0.0004639625549316406
ell 1052, elapsed: 0.00037097930908203125
ell 1051, elapsed: 0.0004677772521972656
ell 1050, elapsed: 0.0003769397735595703
ell 1049, elapsed: 0.0004649162292480469
ell 1048, elapsed: 0.00037479400634765625
ell 1047, elapsed: 0.0004589557647705078
ell 1046, elapsed: 0.00037598609924316406
ell 1045, elapsed: 0.000469207763671875
ell 1044, elapsed: 0.0003650188446044922
ell 1043, elapsed: 0.0004591941833496094
ell 1042, elapsed: 0.00038504600524902344
ell 1041, elapsed: 0.0004749298095703125
ell 1040, elapsed: 0.0003769397735595703
ell 1039, elapsed: 0.0004630088806152344
ell 1038, elapsed: 0.00037407875061035156
ell 1037, elapsed: 0.0004591941833496094
ell 1036, elapsed: 0.0003650188446044922
ell 1035, elapsed: 0.00045800209045410156
ell 1034, elapsed: 0.0005280971527099609
ell 1033, elapsed: 0.0004642009735107422
ell 1032, elapsed: 0.00036907196044921875
ell 1031, elapsed: 0.0004620552062988281
ell 1030, elapsed: 0.00037097930908203125
ell 1029, elapsed: 0.0004620552062988281
ell 1028, elapsed: 0.0003731250762939453
ell 1027, elapsed: 0.0004680156707763672
ell 1026, elapsed: 0.0005400180816650391
ell 1025, elapsed: 0.0004520416259765625
ell 1024, elapsed: 0.0003681182861328125
ell 1023, elapsed: 0.0004661083221435547
ell 1022, elapsed: 0.00037217140197753906
ell 1021, elapsed: 0.00045800209045410156
ell 1020, elapsed: 0.0003662109375
ell 1019, elapsed: 0.0004551410675048828
ell 1018, elapsed: 0.0004899501800537109
ell 1017, elapsed: 0.0004971027374267578
ell 1016, elapsed: 0.00036406517028808594
ell 1015, elapsed: 0.0004589557647705078
ell 1014, elapsed: 0.00037217140197753906
ell 1013, elapsed: 0.0004639625549316406
ell 1012, elapsed: 0.00036978721618652344
ell 1011, elapsed: 0.00045800209045410156
ell 1010, elapsed: 0.0005211830139160156
ell 1009, elapsed: 0.00045680999755859375
ell 1008, elapsed: 0.00036716461181640625
ell 1007, elapsed: 0.0004589557647705078
ell 1006, elapsed: 0.0003712177276611328
ell 1005, elapsed: 0.00045013427734375
ell 1004, elapsed: 0.00037097930908203125
ell 1003, elapsed: 0.0004639625549316406
ell 1002, elapsed: 0.0005290508270263672
ell 1001, elapsed: 0.0004968643188476562
ell 1000, elapsed: 0.0003762245178222656
ell 999, elapsed: 0.0004639625549316406
ell 998, elapsed: 0.00037097930908203125
ell 997, elapsed: 0.0005249977111816406
ell 996, elapsed: 0.0004889965057373047
ell 995, elapsed: 0.0004470348358154297
ell 994, elapsed: 0.000370025634765625
ell 993, elapsed: 0.00046515464782714844
ell 992, elapsed: 0.00037598609924316406
ell 991, elapsed: 0.00046181678771972656
ell 990, elapsed: 0.00037217140197753906
ell 989, elapsed: 0.0004620552062988281
ell 988, elapsed: 0.00037097930908203125
ell 987, elapsed: 0.0004649162292480469
ell 986, elapsed: 0.0006520748138427734
ell 985, elapsed: 0.0005879402160644531
ell 984, elapsed: 0.00044798851013183594
ell 983, elapsed: 0.0005640983581542969
ell 982, elapsed: 0.0004718303680419922
ell 981, elapsed: 0.0005559921264648438
ell 980, elapsed: 0.00045990943908691406
ell 979, elapsed: 0.0005548000335693359
ell 978, elapsed: 0.0004410743713378906
ell 977, elapsed: 0.0004749298095703125
ell 976, elapsed: 0.00036907196044921875
ell 975, elapsed: 0.0004649162292480469
ell 974, elapsed: 0.0003669261932373047
ell 973, elapsed: 0.00044989585876464844
ell 972, elapsed: 0.0003771781921386719
ell 971, elapsed: 0.0004589557647705078
ell 970, elapsed: 0.0003719329833984375
ell 969, elapsed: 0.0004899501800537109
ell 968, elapsed: 0.00037789344787597656
ell 967, elapsed: 0.0004668235778808594
ell 966, elapsed: 0.0003769397735595703
ell 965, elapsed: 0.00046515464782714844
ell 964, elapsed: 0.0003769397735595703
ell 963, elapsed: 0.0004620552062988281
ell 962, elapsed: 0.0003750324249267578
ell 961, elapsed: 0.00048804283142089844
ell 960, elapsed: 0.0003769397735595703
ell 959, elapsed: 0.0004661083221435547
ell 958, elapsed: 0.0003769397735595703
ell 957, elapsed: 0.00047397613525390625
ell 956, elapsed: 0.0003781318664550781
ell 955, elapsed: 0.0004658699035644531
ell 954, elapsed: 0.00037598609924316406
ell 953, elapsed: 0.00047898292541503906
ell 952, elapsed: 0.00037288665771484375
ell 951, elapsed: 0.0004661083221435547
ell 950, elapsed: 0.0005259513854980469
ell 949, elapsed: 0.0005309581756591797
ell 948, elapsed: 0.00037407875061035156
ell 947, elapsed: 0.00047087669372558594
ell 946, elapsed: 0.0003781318664550781
ell 945, elapsed: 0.0004830360412597656
ell 944, elapsed: 0.0003769397735595703
ell 943, elapsed: 0.00045800209045410156
ell 942, elapsed: 0.00037384033203125
ell 941, elapsed: 0.0004620552062988281
ell 940, elapsed: 0.0003750324249267578
ell 939, elapsed: 0.00047206878662109375
ell 938, elapsed: 0.0003859996795654297
ell 937, elapsed: 0.0004820823669433594
ell 936, elapsed: 0.0003771781921386719
ell 935, elapsed: 0.0004711151123046875
ell 934, elapsed: 0.0003781318664550781
ell 933, elapsed: 0.0004680156707763672
ell 932, elapsed: 0.0003781318664550781
ell 931, elapsed: 0.00047087669372558594
ell 930, elapsed: 0.00037789344787597656
ell 929, elapsed: 0.0004870891571044922
ell 928, elapsed: 0.00037598609924316406
ell 927, elapsed: 0.0004608631134033203
ell 926, elapsed: 0.00037384033203125
ell 925, elapsed: 0.0004570484161376953
ell 924, elapsed: 0.00037407875061035156
ell 923, elapsed: 0.00046896934509277344
ell 922, elapsed: 0.00036907196044921875
ell 921, elapsed: 0.00044989585876464844
ell 920, elapsed: 0.0003781318664550781
ell 919, elapsed: 0.00046896934509277344
ell 918, elapsed: 0.00037097930908203125
ell 917, elapsed: 0.00045800209045410156
ell 916, elapsed: 0.00037217140197753906
ell 915, elapsed: 0.0004680156707763672
ell 914, elapsed: 0.0003750324249267578
ell 913, elapsed: 0.0004639625549316406
ell 912, elapsed: 0.0004620552062988281
ell 911, elapsed: 0.00046896934509277344
ell 910, elapsed: 0.00038313865661621094
ell 909, elapsed: 0.0004589557647705078
ell 908, elapsed: 0.0003809928894042969
ell 907, elapsed: 0.0004661083221435547
ell 906, elapsed: 0.00037598609924316406
ell 905, elapsed: 0.00045800209045410156
ell 904, elapsed: 0.0004620552062988281
ell 903, elapsed: 0.0004661083221435547
ell 902, elapsed: 0.0003838539123535156
ell 901, elapsed: 0.0004620552062988281
ell 900, elapsed: 0.0003650188446044922
ell 899, elapsed: 0.00045800209045410156
ell 898, elapsed: 0.00036406517028808594
ell 897, elapsed: 0.0004410743713378906
ell 896, elapsed: 0.000469207763671875
ell 895, elapsed: 0.0004630088806152344
ell 894, elapsed: 0.00037217140197753906
ell 893, elapsed: 0.0004642009735107422
ell 892, elapsed: 0.0003719329833984375
ell 891, elapsed: 0.00045800209045410156
ell 890, elapsed: 0.0003681182861328125
ell 889, elapsed: 0.0004658699035644531
ell 888, elapsed: 0.00047779083251953125
ell 887, elapsed: 0.0004649162292480469
ell 886, elapsed: 0.0003719329833984375
ell 885, elapsed: 0.0004661083221435547
ell 884, elapsed: 0.0003750324249267578
ell 883, elapsed: 0.00047397613525390625
ell 882, elapsed: 0.0003762245178222656
ell 881, elapsed: 0.0004589557647705078
ell 880, elapsed: 0.0004630088806152344
ell 879, elapsed: 0.0004711151123046875
ell 878, elapsed: 0.00036716461181640625
ell 877, elapsed: 0.00046181678771972656
ell 876, elapsed: 0.00037384033203125
ell 875, elapsed: 0.0004630088806152344
ell 874, elapsed: 0.0003719329833984375
ell 873, elapsed: 0.0004639625549316406
ell 872, elapsed: 0.00037384033203125
ell 871, elapsed: 0.00046896934509277344
ell 870, elapsed: 0.0003838539123535156
ell 869, elapsed: 0.0004749298095703125
ell 868, elapsed: 0.00037384033203125
ell 867, elapsed: 0.0004699230194091797
ell 866, elapsed: 0.00037980079650878906
ell 865, elapsed: 0.0004591941833496094
ell 864, elapsed: 0.00037217140197753906
ell 863, elapsed: 0.0004730224609375
ell 862, elapsed: 0.0003788471221923828
ell 861, elapsed: 0.0004711151123046875
ell 860, elapsed: 0.00037479400634765625
ell 859, elapsed: 0.0004661083221435547
ell 858, elapsed: 0.0003848075866699219
ell 857, elapsed: 0.0004699230194091797
ell 856, elapsed: 0.0003819465637207031
ell 855, elapsed: 0.0004749298095703125
ell 854, elapsed: 0.0003838539123535156
ell 853, elapsed: 0.00047397613525390625
ell 852, elapsed: 0.0003731250762939453
ell 851, elapsed: 0.0004730224609375
ell 850, elapsed: 0.00037598609924316406
ell 849, elapsed: 0.0004611015319824219
ell 848, elapsed: 0.0003669261932373047
ell 847, elapsed: 0.0004620552062988281
ell 846, elapsed: 0.0003790855407714844
ell 845, elapsed: 0.0004589557647705078
ell 844, elapsed: 0.0003809928894042969
ell 843, elapsed: 0.00046706199645996094
ell 842, elapsed: 0.00037407875061035156
ell 841, elapsed: 0.0004661083221435547
ell 840, elapsed: 0.0003688335418701172
ell 839, elapsed: 0.00048613548278808594
ell 838, elapsed: 0.00037097930908203125
ell 837, elapsed: 0.0004639625549316406
ell 836, elapsed: 0.0003750324249267578
ell 835, elapsed: 0.00046515464782714844
ell 834, elapsed: 0.0003669261932373047
ell 833, elapsed: 0.0004570484161376953
ell 832, elapsed: 0.00036907196044921875
ell 831, elapsed: 0.0005640983581542969
ell 830, elapsed: 0.00037789344787597656
ell 829, elapsed: 0.0004620552062988281
ell 828, elapsed: 0.00037598609924316406
ell 827, elapsed: 0.0004611015319824219
ell 826, elapsed: 0.00036597251892089844
ell 825, elapsed: 0.00045800209045410156
ell 824, elapsed: 0.00036907196044921875
ell 823, elapsed: 0.0004811286926269531
ell 822, elapsed: 0.00037598609924316406
ell 821, elapsed: 0.000469207763671875
ell 820, elapsed: 0.0003781318664550781
ell 819, elapsed: 0.0004680156707763672
ell 818, elapsed: 0.0003790855407714844
ell 817, elapsed: 0.00047397613525390625
ell 816, elapsed: 0.0003788471221923828
ell 815, elapsed: 0.0004971027374267578
ell 814, elapsed: 0.0003819465637207031
ell 813, elapsed: 0.00048804283142089844
ell 812, elapsed: 0.00037789344787597656
ell 811, elapsed: 0.00047087669372558594
ell 810, elapsed: 0.0003781318664550781
ell 809, elapsed: 0.00047588348388671875
ell 808, elapsed: 0.0003809928894042969
ell 807, elapsed: 0.00047898292541503906
ell 806, elapsed: 0.00039005279541015625
ell 805, elapsed: 0.0004620552062988281
ell 804, elapsed: 0.0003688335418701172
ell 803, elapsed: 0.0004630088806152344
ell 802, elapsed: 0.0003840923309326172
ell 801, elapsed: 0.0004661083221435547
ell 800, elapsed: 0.00037288665771484375
ell 799, elapsed: 0.0005500316619873047
ell 798, elapsed: 0.00036907196044921875
ell 797, elapsed: 0.0004630088806152344
ell 796, elapsed: 0.00037384033203125
ell 795, elapsed: 0.0004589557647705078
ell 794, elapsed: 0.000370025634765625
ell 793, elapsed: 0.00046706199645996094
ell 792, elapsed: 0.0003719329833984375
ell 791, elapsed: 0.0004718303680419922
ell 790, elapsed: 0.00037789344787597656
ell 789, elapsed: 0.0004668235778808594
ell 788, elapsed: 0.0003819465637207031
ell 787, elapsed: 0.00046515464782714844
ell 786, elapsed: 0.0003819465637207031
ell 785, elapsed: 0.00047016143798828125
ell 784, elapsed: 0.0003790855407714844
ell 783, elapsed: 0.00047206878662109375
ell 782, elapsed: 0.0003821849822998047
ell 781, elapsed: 0.00047087669372558594
ell 780, elapsed: 0.0003879070281982422
ell 779, elapsed: 0.0004730224609375
ell 778, elapsed: 0.0003719329833984375
ell 777, elapsed: 0.0004608631134033203
ell 776, elapsed: 0.00038695335388183594
ell 775, elapsed: 0.0004611015319824219
ell 774, elapsed: 0.00037288665771484375
ell 773, elapsed: 0.0004661083221435547
ell 772, elapsed: 0.0003619194030761719
ell 771, elapsed: 0.00045013427734375
ell 770, elapsed: 0.000370025634765625
ell 769, elapsed: 0.0004570484161376953
ell 768, elapsed: 0.00036597251892089844
ell 767, elapsed: 0.0004630088806152344
ell 766, elapsed: 0.0004978179931640625
ell 765, elapsed: 0.00045108795166015625
ell 764, elapsed: 0.00036907196044921875
ell 763, elapsed: 0.0004558563232421875
ell 762, elapsed: 0.00037288665771484375
ell 761, elapsed: 0.0004658699035644531
ell 760, elapsed: 0.0003712177276611328
ell 759, elapsed: 0.00046706199645996094
ell 758, elapsed: 0.000492095947265625
ell 757, elapsed: 0.0004730224609375
ell 756, elapsed: 0.0003750324249267578
ell 755, elapsed: 0.0004630088806152344
ell 754, elapsed: 0.00037384033203125
ell 753, elapsed: 0.0004551410675048828
ell 752, elapsed: 0.00037407875061035156
ell 751, elapsed: 0.0004589557647705078
ell 750, elapsed: 0.0005099773406982422
ell 749, elapsed: 0.0004620552062988281
ell 748, elapsed: 0.00036787986755371094
ell 747, elapsed: 0.0004711151123046875
ell 746, elapsed: 0.0003771781921386719
ell 745, elapsed: 0.0004601478576660156
ell 744, elapsed: 0.00037407875061035156
ell 743, elapsed: 0.00045990943908691406
ell 742, elapsed: 0.0004901885986328125
ell 741, elapsed: 0.00047206878662109375
ell 740, elapsed: 0.0004649162292480469
ell 739, elapsed: 0.0006039142608642578
ell 738, elapsed: 0.00037407875061035156
ell 737, elapsed: 0.0004639625549316406
ell 736, elapsed: 0.0003769397735595703
ell 735, elapsed: 0.00047588348388671875
ell 734, elapsed: 0.0005440711975097656
ell 733, elapsed: 0.0004608631134033203
ell 732, elapsed: 0.00037097930908203125
ell 731, elapsed: 0.0004658699035644531
ell 730, elapsed: 0.0003650188446044922
ell 729, elapsed: 0.0004620552062988281
ell 728, elapsed: 0.0005350112915039062
ell 727, elapsed: 0.0006289482116699219
ell 726, elapsed: 0.0003769397735595703
ell 725, elapsed: 0.0004608631134033203
ell 724, elapsed: 0.00038504600524902344
ell 723, elapsed: 0.0004570484161376953
ell 722, elapsed: 0.0003769397735595703
ell 721, elapsed: 0.0004620552062988281
ell 720, elapsed: 0.00036907196044921875
ell 719, elapsed: 0.0005710124969482422
ell 718, elapsed: 0.00037598609924316406
ell 717, elapsed: 0.0004611015319824219
ell 716, elapsed: 0.00037407875061035156
ell 715, elapsed: 0.0004489421844482422
ell 714, elapsed: 0.00036716461181640625
ell 713, elapsed: 0.0004649162292480469
ell 712, elapsed: 0.0003731250762939453
ell 711, elapsed: 0.0005650520324707031
ell 710, elapsed: 0.0003750324249267578
ell 709, elapsed: 0.0004630088806152344
ell 708, elapsed: 0.00036787986755371094
ell 707, elapsed: 0.0004699230194091797
ell 706, elapsed: 0.0003688335418701172
ell 705, elapsed: 0.0004649162292480469
ell 704, elapsed: 0.00037407875061035156
ell 703, elapsed: 0.0004558563232421875
ell 702, elapsed: 0.00038313865661621094
ell 701, elapsed: 0.0004711151123046875
ell 700, elapsed: 0.00037789344787597656
ell 699, elapsed: 0.0004680156707763672
ell 698, elapsed: 0.0003800392150878906
ell 697, elapsed: 0.0004620552062988281
ell 696, elapsed: 0.0003809928894042969
ell 695, elapsed: 0.0004649162292480469
ell 694, elapsed: 0.0003840923309326172
ell 693, elapsed: 0.0004551410675048828
ell 692, elapsed: 0.0003681182861328125
ell 691, elapsed: 0.0004658699035644531
ell 690, elapsed: 0.00037384033203125
ell 689, elapsed: 0.00045800209045410156
ell 688, elapsed: 0.0004401206970214844
ell 687, elapsed: 0.0007219314575195312
ell 686, elapsed: 0.00037097930908203125
ell 685, elapsed: 0.00044798851013183594
ell 684, elapsed: 0.0003650188446044922
ell 683, elapsed: 0.0004551410675048828
ell 682, elapsed: 0.0003669261932373047
ell 681, elapsed: 0.000453948974609375
ell 680, elapsed: 0.00036406517028808594
ell 679, elapsed: 0.0005910396575927734
ell 678, elapsed: 0.0003800392150878906
ell 677, elapsed: 0.00045800209045410156
ell 676, elapsed: 0.0003750324249267578
ell 675, elapsed: 0.0004658699035644531
ell 674, elapsed: 0.00037384033203125
ell 673, elapsed: 0.00045990943908691406
ell 672, elapsed: 0.000370025634765625
ell 671, elapsed: 0.000598907470703125
ell 670, elapsed: 0.00037598609924316406
ell 669, elapsed: 0.00047087669372558594
ell 668, elapsed: 0.0003788471221923828
ell 667, elapsed: 0.0004620552062988281
ell 666, elapsed: 0.00037407875061035156
ell 665, elapsed: 0.0004649162292480469
ell 664, elapsed: 0.00036716461181640625
ell 663, elapsed: 0.0004520416259765625
ell 662, elapsed: 0.0003771781921386719
ell 661, elapsed: 0.0004630088806152344
ell 660, elapsed: 0.00037097930908203125
ell 659, elapsed: 0.00044989585876464844
ell 658, elapsed: 0.00036597251892089844
ell 657, elapsed: 0.00045108795166015625
ell 656, elapsed: 0.00036907196044921875
ell 655, elapsed: 0.0004558563232421875
ell 654, elapsed: 0.0004990100860595703
ell 653, elapsed: 0.0004589557647705078
ell 652, elapsed: 0.00036597251892089844
ell 651, elapsed: 0.00045490264892578125
ell 650, elapsed: 0.0003650188446044922
ell 649, elapsed: 0.000453948974609375
ell 648, elapsed: 0.00036907196044921875
ell 647, elapsed: 0.0004551410675048828
ell 646, elapsed: 0.0005059242248535156
ell 645, elapsed: 0.0004649162292480469
ell 644, elapsed: 0.0003769397735595703
ell 643, elapsed: 0.00046896934509277344
ell 642, elapsed: 0.0003838539123535156
ell 641, elapsed: 0.00045108795166015625
ell 640, elapsed: 0.00037097930908203125
ell 639, elapsed: 0.0004611015319824219
ell 638, elapsed: 0.0005049705505371094
ell 637, elapsed: 0.0004642009735107422
ell 636, elapsed: 0.00037217140197753906
ell 635, elapsed: 0.0004680156707763672
ell 634, elapsed: 0.0003669261932373047
ell 633, elapsed: 0.0004677772521972656
ell 632, elapsed: 0.00037789344787597656
ell 631, elapsed: 0.00045990943908691406
ell 630, elapsed: 0.0005071163177490234
ell 629, elapsed: 0.0004620552062988281
ell 628, elapsed: 0.00037288665771484375
ell 627, elapsed: 0.0004620552062988281
ell 626, elapsed: 0.00037097930908203125
ell 625, elapsed: 0.0004649162292480469
ell 624, elapsed: 0.000370025634765625
ell 623, elapsed: 0.0004639625549316406
ell 622, elapsed: 0.0005021095275878906
ell 621, elapsed: 0.0004620552062988281
ell 620, elapsed: 0.0003731250762939453
ell 619, elapsed: 0.0004699230194091797
ell 618, elapsed: 0.0003681182861328125
ell 617, elapsed: 0.0004658699035644531
ell 616, elapsed: 0.0003719329833984375
ell 615, elapsed: 0.0004639625549316406
ell 614, elapsed: 0.0005068778991699219
ell 613, elapsed: 0.0004658699035644531
ell 612, elapsed: 0.0003750324249267578
ell 611, elapsed: 0.0004570484161376953
ell 610, elapsed: 0.00037217140197753906
ell 609, elapsed: 0.0004620552062988281
ell 608, elapsed: 0.00037288665771484375
ell 607, elapsed: 0.0004661083221435547
ell 606, elapsed: 0.0005028247833251953
ell 605, elapsed: 0.0004668235778808594
ell 604, elapsed: 0.0005428791046142578
ell 603, elapsed: 0.0005099773406982422
ell 602, elapsed: 0.00037097930908203125
ell 601, elapsed: 0.0004649162292480469
ell 600, elapsed: 0.0003750324249267578
ell 599, elapsed: 0.0004630088806152344
ell 598, elapsed: 0.0003838539123535156
ell 597, elapsed: 0.0004630088806152344
ell 596, elapsed: 0.0003771781921386719
ell 595, elapsed: 0.00045800209045410156
ell 594, elapsed: 0.00036907196044921875
ell 593, elapsed: 0.00047397613525390625
ell 592, elapsed: 0.00037097930908203125
ell 591, elapsed: 0.0004620552062988281
ell 590, elapsed: 0.0006358623504638672
ell 589, elapsed: 0.0006098747253417969
ell 588, elapsed: 0.0003838539123535156
ell 587, elapsed: 0.0004661083221435547
ell 586, elapsed: 0.00037598609924316406
ell 585, elapsed: 0.000476837158203125
ell 584, elapsed: 0.00037479400634765625
ell 583, elapsed: 0.000476837158203125
ell 582, elapsed: 0.0003781318664550781
ell 581, elapsed: 0.0004630088806152344
ell 580, elapsed: 0.0003819465637207031
ell 579, elapsed: 0.0004680156707763672
ell 578, elapsed: 0.00037384033203125
ell 577, elapsed: 0.0004658699035644531
ell 576, elapsed: 0.0003750324249267578
ell 575, elapsed: 0.0004990100860595703
ell 574, elapsed: 0.0003769397735595703
ell 573, elapsed: 0.0004570484161376953
ell 572, elapsed: 0.0004851818084716797
ell 571, elapsed: 0.000598907470703125
ell 570, elapsed: 0.0003769397735595703
ell 569, elapsed: 0.0004661083221435547
ell 568, elapsed: 0.0003731250762939453
ell 567, elapsed: 0.0004811286926269531
ell 566, elapsed: 0.00037479400634765625
ell 565, elapsed: 0.00045609474182128906
ell 564, elapsed: 0.0003669261932373047
ell 563, elapsed: 0.00045990943908691406
ell 562, elapsed: 0.00037217140197753906
ell 561, elapsed: 0.0004620552062988281
ell 560, elapsed: 0.0003790855407714844
ell 559, elapsed: 0.0005519390106201172
ell 558, elapsed: 0.0002968311309814453
ell 557, elapsed: 0.0005400180816650391
ell 556, elapsed: 0.0004711151123046875
ell 555, elapsed: 0.0004551410675048828
ell 554, elapsed: 0.0003669261932373047
ell 553, elapsed: 0.00044608116149902344
ell 552, elapsed: 0.00036406517028808594
ell 551, elapsed: 0.00045990943908691406
ell 550, elapsed: 0.00037479400634765625
ell 549, elapsed: 0.0004611015319824219
ell 548, elapsed: 0.0003788471221923828
ell 547, elapsed: 0.00045490264892578125
ell 546, elapsed: 0.00036716461181640625
ell 545, elapsed: 0.0004398822784423828
ell 544, elapsed: 0.00043392181396484375
ell 543, elapsed: 0.0007460117340087891
ell 542, elapsed: 0.0003769397735595703
ell 541, elapsed: 0.00046706199645996094
ell 540, elapsed: 0.00037598609924316406
ell 539, elapsed: 0.0004630088806152344
ell 538, elapsed: 0.0004961490631103516
ell 537, elapsed: 0.0005671977996826172
ell 536, elapsed: 0.0003688335418701172
ell 535, elapsed: 0.0005609989166259766
ell 534, elapsed: 0.00037384033203125
ell 533, elapsed: 0.0004589557647705078
ell 532, elapsed: 0.0003669261932373047
ell 531, elapsed: 0.0004749298095703125
ell 530, elapsed: 0.00036907196044921875
ell 529, elapsed: 0.0004608631134033203
ell 528, elapsed: 0.0003781318664550781
ell 527, elapsed: 0.0005500316619873047
ell 526, elapsed: 0.0003809928894042969
ell 525, elapsed: 0.0004570484161376953
ell 524, elapsed: 0.0003788471221923828
ell 523, elapsed: 0.00047206878662109375
ell 522, elapsed: 0.0003809928894042969
ell 521, elapsed: 0.00047206878662109375
ell 520, elapsed: 0.0003800392150878906
ell 519, elapsed: 0.0005829334259033203
ell 518, elapsed: 0.00038886070251464844
ell 517, elapsed: 0.00047397613525390625
ell 516, elapsed: 0.0003790855407714844
ell 515, elapsed: 0.0006279945373535156
ell 514, elapsed: 0.0004410743713378906
ell 513, elapsed: 0.0004620552062988281
ell 512, elapsed: 0.0004570484161376953
ell 511, elapsed: 0.0004749298095703125
ell 510, elapsed: 0.0003781318664550781
ell 509, elapsed: 0.0004661083221435547
ell 508, elapsed: 0.0003731250762939453
ell 507, elapsed: 0.0006120204925537109
ell 506, elapsed: 0.00043582916259765625
ell 505, elapsed: 0.0004630088806152344
ell 504, elapsed: 0.00048089027404785156
ell 503, elapsed: 0.0004658699035644531
ell 502, elapsed: 0.00037980079650878906
ell 501, elapsed: 0.0004649162292480469
ell 500, elapsed: 0.00037407875061035156
ell 499, elapsed: 0.0004601478576660156
ell 498, elapsed: 0.0003750324249267578
ell 497, elapsed: 0.0004661083221435547
ell 496, elapsed: 0.00047397613525390625
ell 495, elapsed: 0.0004780292510986328
ell 494, elapsed: 0.0003840923309326172
ell 493, elapsed: 0.0004639625549316406
ell 492, elapsed: 0.0003731250762939453
ell 491, elapsed: 0.000469207763671875
ell 490, elapsed: 0.00037479400634765625
ell 489, elapsed: 0.0004699230194091797
ell 488, elapsed: 0.0004730224609375
ell 487, elapsed: 0.0004661083221435547
ell 486, elapsed: 0.0003771781921386719
ell 485, elapsed: 0.0004839897155761719
ell 484, elapsed: 0.00037097930908203125
ell 483, elapsed: 0.00045800209045410156
ell 482, elapsed: 0.000370025634765625
ell 481, elapsed: 0.0004589557647705078
ell 480, elapsed: 0.0004711151123046875
ell 479, elapsed: 0.0004718303680419922
ell 478, elapsed: 0.0003731250762939453
ell 477, elapsed: 0.0004639625549316406
ell 476, elapsed: 0.00037789344787597656
ell 475, elapsed: 0.00047707557678222656
ell 474, elapsed: 0.0003790855407714844
ell 473, elapsed: 0.00045800209045410156
ell 472, elapsed: 0.0004620552062988281
ell 471, elapsed: 0.0004870891571044922
ell 470, elapsed: 0.00036406517028808594
ell 469, elapsed: 0.00044989585876464844
ell 468, elapsed: 0.0003609657287597656
ell 467, elapsed: 0.0005309581756591797
ell 466, elapsed: 0.0005011558532714844
ell 465, elapsed: 0.0004470348358154297
ell 464, elapsed: 0.0005888938903808594
ell 463, elapsed: 0.0005748271942138672
ell 462, elapsed: 0.00037598609924316406
ell 461, elapsed: 0.00045299530029296875
ell 460, elapsed: 0.000370025634765625
ell 459, elapsed: 0.000453948974609375
ell 458, elapsed: 0.00036787986755371094
ell 457, elapsed: 0.00045800209045410156
ell 456, elapsed: 0.00047898292541503906
ell 455, elapsed: 0.0004749298095703125
ell 454, elapsed: 0.00037288665771484375
ell 453, elapsed: 0.0004780292510986328
ell 452, elapsed: 0.0003719329833984375
ell 451, elapsed: 0.0004658699035644531
ell 450, elapsed: 0.00037598609924316406
ell 449, elapsed: 0.0004630088806152344
ell 448, elapsed: 0.0004661083221435547
ell 447, elapsed: 0.0004718303680419922
ell 446, elapsed: 0.00037598609924316406
ell 445, elapsed: 0.00046706199645996094
ell 444, elapsed: 0.0003712177276611328
ell 443, elapsed: 0.0004680156707763672
ell 442, elapsed: 0.00037407875061035156
ell 441, elapsed: 0.0004589557647705078
ell 440, elapsed: 0.0004699230194091797
ell 439, elapsed: 0.0004858970642089844
ell 438, elapsed: 0.0003840923309326172
ell 437, elapsed: 0.00046706199645996094
ell 436, elapsed: 0.0003750324249267578
ell 435, elapsed: 0.0004699230194091797
ell 434, elapsed: 0.00036907196044921875
ell 433, elapsed: 0.0005810260772705078
ell 432, elapsed: 0.0005140304565429688
ell 431, elapsed: 0.00045013427734375
ell 430, elapsed: 0.00036907196044921875
ell 429, elapsed: 0.0004589557647705078
ell 428, elapsed: 0.00036787986755371094
ell 427, elapsed: 0.0004520416259765625
ell 426, elapsed: 0.00036597251892089844
ell 425, elapsed: 0.0004649162292480469
ell 424, elapsed: 0.0004069805145263672
ell 423, elapsed: 0.0004761219024658203
ell 422, elapsed: 0.0003750324249267578
ell 421, elapsed: 0.00044798851013183594
ell 420, elapsed: 0.00036978721618652344
ell 419, elapsed: 0.0004551410675048828
ell 418, elapsed: 0.00037407875061035156
ell 417, elapsed: 0.0004608631134033203
ell 416, elapsed: 0.00039505958557128906
ell 415, elapsed: 0.0004649162292480469
ell 414, elapsed: 0.00035881996154785156
ell 413, elapsed: 0.00045418739318847656
ell 412, elapsed: 0.0003631114959716797
ell 411, elapsed: 0.0004620552062988281
ell 410, elapsed: 0.00037097930908203125
ell 409, elapsed: 0.0004649162292480469
ell 408, elapsed: 0.00036787986755371094
ell 407, elapsed: 0.0004761219024658203
ell 406, elapsed: 0.00037598609924316406
ell 405, elapsed: 0.0004589557647705078
ell 404, elapsed: 0.00036406517028808594
ell 403, elapsed: 0.0004649162292480469
ell 402, elapsed: 0.0003719329833984375
ell 401, elapsed: 0.000576019287109375
ell 400, elapsed: 0.0005509853363037109
ell 399, elapsed: 0.0006041526794433594
ell 398, elapsed: 0.0005168914794921875
ell 397, elapsed: 0.0005440711975097656
ell 396, elapsed: 0.0003612041473388672
ell 395, elapsed: 0.00043511390686035156
ell 394, elapsed: 0.00036597251892089844
ell 393, elapsed: 0.00044989585876464844
ell 392, elapsed: 0.0003979206085205078
ell 391, elapsed: 0.0004589557647705078
ell 390, elapsed: 0.0004820823669433594
ell 389, elapsed: 0.0007081031799316406
ell 388, elapsed: 0.0005099773406982422
ell 387, elapsed: 0.0005068778991699219
ell 386, elapsed: 0.00038313865661621094
ell 385, elapsed: 0.0004949569702148438
ell 384, elapsed: 0.00041294097900390625
ell 383, elapsed: 0.0004611015319824219
ell 382, elapsed: 0.00038504600524902344
ell 381, elapsed: 0.0005140304565429688
ell 380, elapsed: 0.00036716461181640625
ell 379, elapsed: 0.0005459785461425781
ell 378, elapsed: 0.0004930496215820312
ell 377, elapsed: 0.0004699230194091797
ell 376, elapsed: 0.00036787986755371094
ell 375, elapsed: 0.0004630088806152344
ell 374, elapsed: 0.0005040168762207031
ell 373, elapsed: 0.0005729198455810547
ell 372, elapsed: 0.0003650188446044922
ell 371, elapsed: 0.0004649162292480469
ell 370, elapsed: 0.00039005279541015625
ell 369, elapsed: 0.00045013427734375
ell 368, elapsed: 0.0003719329833984375
ell 367, elapsed: 0.0004611015319824219
ell 366, elapsed: 0.0003750324249267578
ell 365, elapsed: 0.00044989585876464844
ell 364, elapsed: 0.00037407875061035156
ell 363, elapsed: 0.00045299530029296875
ell 362, elapsed: 0.00037288665771484375
ell 361, elapsed: 0.0004911422729492188
ell 360, elapsed: 0.00037217140197753906
ell 359, elapsed: 0.0006389617919921875
ell 358, elapsed: 0.0003991127014160156
ell 357, elapsed: 0.00045609474182128906
ell 356, elapsed: 0.0005168914794921875
ell 355, elapsed: 0.0005970001220703125
ell 354, elapsed: 0.0003781318664550781
ell 353, elapsed: 0.0004658699035644531
ell 352, elapsed: 0.00036215782165527344
ell 351, elapsed: 0.0004558563232421875
ell 350, elapsed: 0.0003681182861328125
ell 349, elapsed: 0.0004639625549316406
ell 348, elapsed: 0.00037097930908203125
ell 347, elapsed: 0.0004551410675048828
ell 346, elapsed: 0.00038909912109375
ell 345, elapsed: 0.00045609474182128906
ell 344, elapsed: 0.00037097930908203125
ell 343, elapsed: 0.0006508827209472656
ell 342, elapsed: 0.0004019737243652344
ell 341, elapsed: 0.00045299530029296875
ell 340, elapsed: 0.0003609657287597656
ell 339, elapsed: 0.0004558563232421875
ell 338, elapsed: 0.00038886070251464844
ell 337, elapsed: 0.00044989585876464844
ell 336, elapsed: 0.0003619194030761719
ell 335, elapsed: 0.0004508495330810547
ell 334, elapsed: 0.0004630088806152344
ell 333, elapsed: 0.0006210803985595703
ell 332, elapsed: 0.0003712177276611328
ell 331, elapsed: 0.0004508495330810547
ell 330, elapsed: 0.00039315223693847656
ell 329, elapsed: 0.00045609474182128906
ell 328, elapsed: 0.00043582916259765625
ell 327, elapsed: 0.0006210803985595703
ell 326, elapsed: 0.00036716461181640625
ell 325, elapsed: 0.0004608631134033203
ell 324, elapsed: 0.00037407875061035156
ell 323, elapsed: 0.0004620552062988281
ell 322, elapsed: 0.000392913818359375
ell 321, elapsed: 0.0004611015319824219
ell 320, elapsed: 0.0003631114959716797
ell 319, elapsed: 0.0004570484161376953
ell 318, elapsed: 0.00037288665771484375
ell 317, elapsed: 0.000453948974609375
ell 316, elapsed: 0.0003731250762939453
ell 315, elapsed: 0.0004620552062988281
ell 314, elapsed: 0.0004048347473144531
ell 313, elapsed: 0.0004620552062988281
ell 312, elapsed: 0.0003619194030761719
ell 311, elapsed: 0.00046896934509277344
ell 310, elapsed: 0.0003731250762939453
ell 309, elapsed: 0.0004601478576660156
ell 308, elapsed: 0.00037288665771484375
ell 307, elapsed: 0.000453948974609375
ell 306, elapsed: 0.0003638267517089844
ell 305, elapsed: 0.0004849433898925781
ell 304, elapsed: 0.00037384033203125
ell 303, elapsed: 0.00045108795166015625
ell 302, elapsed: 0.00036907196044921875
ell 301, elapsed: 0.0004558563232421875
ell 300, elapsed: 0.00037097930908203125
ell 299, elapsed: 0.0006542205810546875
ell 298, elapsed: 0.0004138946533203125
ell 297, elapsed: 0.000492095947265625
ell 296, elapsed: 0.00036406517028808594
ell 295, elapsed: 0.00045990943908691406
ell 294, elapsed: 0.0003669261932373047
ell 293, elapsed: 0.0004551410675048828
ell 292, elapsed: 0.0003669261932373047
ell 291, elapsed: 0.0004520416259765625
ell 290, elapsed: 0.00036907196044921875
ell 289, elapsed: 0.0004711151123046875
ell 288, elapsed: 0.0003609657287597656
ell 287, elapsed: 0.0004558563232421875
ell 286, elapsed: 0.00037407875061035156
ell 285, elapsed: 0.0004611015319824219
ell 284, elapsed: 0.0003731250762939453
ell 283, elapsed: 0.00044798851013183594
ell 282, elapsed: 0.00036787986755371094
ell 281, elapsed: 0.0004818439483642578
ell 280, elapsed: 0.0003731250762939453
ell 279, elapsed: 0.00045800209045410156
ell 278, elapsed: 0.00037097930908203125
ell 277, elapsed: 0.000453948974609375
ell 276, elapsed: 0.00036597251892089844
ell 275, elapsed: 0.00044608116149902344
ell 274, elapsed: 0.00036787986755371094
ell 273, elapsed: 0.00045990943908691406
ell 272, elapsed: 0.0005009174346923828
ell 271, elapsed: 0.0005600452423095703
ell 270, elapsed: 0.00036406517028808594
ell 269, elapsed: 0.0004410743713378906
ell 268, elapsed: 0.0003619194030761719
ell 267, elapsed: 0.0004439353942871094
ell 266, elapsed: 0.0004968643188476562
ell 265, elapsed: 0.0005700588226318359
ell 264, elapsed: 0.00036597251892089844
ell 263, elapsed: 0.00045299530029296875
ell 262, elapsed: 0.00036215782165527344
ell 261, elapsed: 0.0004398822784423828
ell 260, elapsed: 0.0003638267517089844
ell 259, elapsed: 0.0005562305450439453
ell 258, elapsed: 0.0004761219024658203
ell 257, elapsed: 0.0004620552062988281
ell 256, elapsed: 0.00036907196044921875
ell 255, elapsed: 0.00044608116149902344
ell 254, elapsed: 0.0004899501800537109
ell 253, elapsed: 0.00055694580078125
ell 252, elapsed: 0.00036597251892089844
ell 251, elapsed: 0.0004620552062988281
ell 250, elapsed: 0.00036597251892089844
ell 249, elapsed: 0.0004799365997314453
ell 248, elapsed: 0.0004470348358154297
ell 247, elapsed: 0.0006060600280761719
ell 246, elapsed: 0.00037407875061035156
ell 245, elapsed: 0.00045013427734375
ell 244, elapsed: 0.00036716461181640625
ell 243, elapsed: 0.0004420280456542969
ell 242, elapsed: 0.0003609657287597656
ell 241, elapsed: 0.0004680156707763672
ell 240, elapsed: 0.00036406517028808594
ell 239, elapsed: 0.00045800209045410156
ell 238, elapsed: 0.0003650188446044922
ell 237, elapsed: 0.000453948974609375
ell 236, elapsed: 0.00036907196044921875
ell 235, elapsed: 0.0004570484161376953
ell 234, elapsed: 0.00036716461181640625
ell 233, elapsed: 0.0004439353942871094
ell 232, elapsed: 0.00037598609924316406
ell 231, elapsed: 0.00045299530029296875
ell 230, elapsed: 0.00037598609924316406
ell 229, elapsed: 0.000453948974609375
ell 228, elapsed: 0.00036787986755371094
ell 227, elapsed: 0.0006430149078369141
ell 226, elapsed: 0.0004169940948486328
ell 225, elapsed: 0.0004680156707763672
ell 224, elapsed: 0.0003681182861328125
ell 223, elapsed: 0.0004458427429199219
ell 222, elapsed: 0.0003769397735595703
ell 221, elapsed: 0.00045990943908691406
ell 220, elapsed: 0.0003681182861328125
ell 219, elapsed: 0.0004608631134033203
ell 218, elapsed: 0.0003688335418701172
ell 217, elapsed: 0.00045108795166015625
ell 216, elapsed: 0.0003941059112548828
ell 215, elapsed: 0.0004551410675048828
ell 214, elapsed: 0.00036406517028808594
ell 213, elapsed: 0.00046706199645996094
ell 212, elapsed: 0.00037407875061035156
ell 211, elapsed: 0.00045609474182128906
ell 210, elapsed: 0.0003688335418701172
ell 209, elapsed: 0.0004520416259765625
ell 208, elapsed: 0.0003859996795654297
ell 207, elapsed: 0.000453948974609375
ell 206, elapsed: 0.00036597251892089844
ell 205, elapsed: 0.00045490264892578125
ell 204, elapsed: 0.0003821849822998047
ell 203, elapsed: 0.000453948974609375
ell 202, elapsed: 0.0003628730773925781
ell 201, elapsed: 0.00045490264892578125
ell 200, elapsed: 0.0003609657287597656
ell 199, elapsed: 0.000492095947265625
ell 198, elapsed: 0.0003650188446044922
ell 197, elapsed: 0.0004570484161376953
ell 196, elapsed: 0.00037598609924316406
ell 195, elapsed: 0.0004630088806152344
ell 194, elapsed: 0.00037097930908203125
ell 193, elapsed: 0.0004718303680419922
ell 192, elapsed: 0.000370025634765625
ell 191, elapsed: 0.0004799365997314453
ell 190, elapsed: 0.00037097930908203125
ell 189, elapsed: 0.0004589557647705078
ell 188, elapsed: 0.0003781318664550781
ell 187, elapsed: 0.0004711151123046875
ell 186, elapsed: 0.0003998279571533203
ell 185, elapsed: 0.000453948974609375
ell 184, elapsed: 0.00036215782165527344
ell 183, elapsed: 0.0004870891571044922
ell 182, elapsed: 0.0003650188446044922
ell 181, elapsed: 0.000453948974609375
ell 180, elapsed: 0.00036406517028808594
ell 179, elapsed: 0.00045418739318847656
ell 178, elapsed: 0.00036787986755371094
ell 177, elapsed: 0.0004589557647705078
ell 176, elapsed: 0.0003631114959716797
ell 175, elapsed: 0.0004570484161376953
ell 174, elapsed: 0.00043511390686035156
ell 173, elapsed: 0.0004520416259765625
ell 172, elapsed: 0.0003650188446044922
ell 171, elapsed: 0.0004420280456542969
ell 170, elapsed: 0.00036597251892089844
ell 169, elapsed: 0.00044798851013183594
ell 168, elapsed: 0.00036716461181640625
ell 167, elapsed: 0.0004520416259765625
ell 166, elapsed: 0.0003960132598876953
ell 165, elapsed: 0.0004639625549316406
ell 164, elapsed: 0.00037288665771484375
ell 163, elapsed: 0.0004570484161376953
ell 162, elapsed: 0.00036597251892089844
ell 161, elapsed: 0.00044989585876464844
ell 160, elapsed: 0.0003669261932373047
ell 159, elapsed: 0.0004570484161376953
ell 158, elapsed: 0.00036907196044921875
ell 157, elapsed: 0.0004470348358154297
ell 156, elapsed: 0.00036787986755371094
ell 155, elapsed: 0.0004520416259765625
ell 154, elapsed: 0.00036907196044921875
ell 153, elapsed: 0.0004639625549316406
ell 152, elapsed: 0.00043201446533203125
ell 151, elapsed: 0.0006020069122314453
ell 150, elapsed: 0.0003719329833984375
ell 149, elapsed: 0.0004601478576660156
ell 148, elapsed: 0.0003681182861328125
ell 147, elapsed: 0.00045180320739746094
ell 146, elapsed: 0.00036597251892089844
ell 145, elapsed: 0.00044608116149902344
ell 144, elapsed: 0.00036597251892089844
ell 143, elapsed: 0.00045299530029296875
ell 142, elapsed: 0.000370025634765625
ell 141, elapsed: 0.00046896934509277344
ell 140, elapsed: 0.00036597251892089844
ell 139, elapsed: 0.0004508495330810547
ell 138, elapsed: 0.00036597251892089844
ell 137, elapsed: 0.0004470348358154297
ell 136, elapsed: 0.00036787986755371094
ell 135, elapsed: 0.000576019287109375
ell 134, elapsed: 0.0004639625549316406
ell 133, elapsed: 0.0004868507385253906
ell 132, elapsed: 0.0003790855407714844
ell 131, elapsed: 0.0004639625549316406
ell 130, elapsed: 0.00037407875061035156
ell 129, elapsed: 0.00045108795166015625
ell 128, elapsed: 0.0003600120544433594
ell 127, elapsed: 0.0004620552062988281
ell 126, elapsed: 0.0003669261932373047
ell 125, elapsed: 0.0004630088806152344
ell 124, elapsed: 0.0003719329833984375
ell 123, elapsed: 0.000453948974609375
ell 122, elapsed: 0.00036597251892089844
ell 121, elapsed: 0.00044989585876464844
ell 120, elapsed: 0.00037407875061035156
ell 119, elapsed: 0.0004520416259765625
ell 118, elapsed: 0.0003769397735595703
ell 117, elapsed: 0.000453948974609375
ell 116, elapsed: 0.0004019737243652344
ell 115, elapsed: 0.00045013427734375
ell 114, elapsed: 0.0003688335418701172
ell 113, elapsed: 0.0004551410675048828
ell 112, elapsed: 0.00036597251892089844
ell 111, elapsed: 0.00045299530029296875
ell 110, elapsed: 0.00039005279541015625
ell 109, elapsed: 0.0006399154663085938
ell 108, elapsed: 0.00039577484130859375
ell 107, elapsed: 0.0004570484161376953
ell 106, elapsed: 0.0003669261932373047
ell 105, elapsed: 0.00045490264892578125
ell 104, elapsed: 0.0003681182861328125
ell 103, elapsed: 0.00044798851013183594
ell 102, elapsed: 0.0003631114959716797
ell 101, elapsed: 0.00045299530029296875
ell 100, elapsed: 0.000476837158203125
ell 99, elapsed: 0.0006148815155029297
ell 98, elapsed: 0.0003662109375
ell 97, elapsed: 0.0005590915679931641
ell 96, elapsed: 0.0004830360412597656
ell 95, elapsed: 0.00045299530029296875
ell 94, elapsed: 0.0003769397735595703
ell 93, elapsed: 0.0004818439483642578
ell 92, elapsed: 0.00037288665771484375
ell 91, elapsed: 0.0004591941833496094
ell 90, elapsed: 0.00036907196044921875
ell 89, elapsed: 0.00045299530029296875
ell 88, elapsed: 0.000370025634765625
ell 87, elapsed: 0.0006501674652099609
ell 86, elapsed: 0.0004019737243652344
ell 85, elapsed: 0.0004811286926269531
ell 84, elapsed: 0.00037384033203125
ell 83, elapsed: 0.0004591941833496094
ell 82, elapsed: 0.000370025634765625
ell 81, elapsed: 0.0004589557647705078
ell 80, elapsed: 0.000370025634765625
ell 79, elapsed: 0.00045299530029296875
ell 78, elapsed: 0.00037384033203125
ell 77, elapsed: 0.00047898292541503906
ell 76, elapsed: 0.00037598609924316406
ell 75, elapsed: 0.0004649162292480469
ell 74, elapsed: 0.00036907196044921875
ell 73, elapsed: 0.00045609474182128906
ell 72, elapsed: 0.000370025634765625
ell 71, elapsed: 0.00046706199645996094
ell 70, elapsed: 0.00037598609924316406
ell 69, elapsed: 0.0004608631134033203
ell 68, elapsed: 0.0003859996795654297
ell 67, elapsed: 0.0004608631134033203
ell 66, elapsed: 0.00037384033203125
ell 65, elapsed: 0.00045680999755859375
ell 64, elapsed: 0.00037097930908203125
ell 63, elapsed: 0.00045800209045410156
ell 62, elapsed: 0.00037789344787597656
ell 61, elapsed: 0.0004620552062988281
ell 60, elapsed: 0.0003960132598876953
ell 59, elapsed: 0.0005810260772705078
ell 58, elapsed: 0.0004730224609375
ell 57, elapsed: 0.00045609474182128906
ell 56, elapsed: 0.0005311965942382812
ell 55, elapsed: 0.0005261898040771484
ell 54, elapsed: 0.0003688335418701172
ell 53, elapsed: 0.0004889965057373047
ell 52, elapsed: 0.00036907196044921875
ell 51, elapsed: 0.0004570484161376953
ell 50, elapsed: 0.00037288665771484375
ell 49, elapsed: 0.00045800209045410156
ell 48, elapsed: 0.0003688335418701172
ell 47, elapsed: 0.00045609474182128906
ell 46, elapsed: 0.0003781318664550781
ell 45, elapsed: 0.0006759166717529297
ell 44, elapsed: 0.0003948211669921875
ell 43, elapsed: 0.0004520416259765625
ell 42, elapsed: 0.00037598609924316406
ell 41, elapsed: 0.0004570484161376953
ell 40, elapsed: 0.000370025634765625
ell 39, elapsed: 0.00045800209045410156
ell 38, elapsed: 0.00037407875061035156
ell 37, elapsed: 0.00047016143798828125
ell 36, elapsed: 0.0005497932434082031
ell 35, elapsed: 0.0005230903625488281
ell 34, elapsed: 0.00037097930908203125
ell 33, elapsed: 0.0004611015319824219
ell 32, elapsed: 0.00036907196044921875
ell 31, elapsed: 0.00047016143798828125
ell 30, elapsed: 0.00037980079650878906
ell 29, elapsed: 0.0004901885986328125
ell 28, elapsed: 0.0003688335418701172
ell 27, elapsed: 0.0004611015319824219
ell 26, elapsed: 0.00037097930908203125
ell 25, elapsed: 0.00045490264892578125
ell 24, elapsed: 0.00037789344787597656
ell 23, elapsed: 0.0004570484161376953
ell 22, elapsed: 0.00037407875061035156
ell 21, elapsed: 0.00046515464782714844
ell 20, elapsed: 0.0003719329833984375
ell 19, elapsed: 0.0004639625549316406
ell 18, elapsed: 0.0003769397735595703
ell 17, elapsed: 0.0004620552062988281
ell 16, elapsed: 0.00037097930908203125
ell 15, elapsed: 0.00047588348388671875
ell 14, elapsed: 0.0003731250762939453
ell 13, elapsed: 0.0004570484161376953
ell 12, elapsed: 0.00039196014404296875
ell 11, elapsed: 0.00045800209045410156
ell 10, elapsed: 0.00037407875061035156
ell 9, elapsed: 0.00046181678771972656
ell 8, elapsed: 0.0003731250762939453
ell 7, elapsed: 0.0004620552062988281
ell 6, elapsed: 0.00037217140197753906
ell 5, elapsed: 0.0004558563232421875
ell 4, elapsed: 0.0004820823669433594
ell 3, elapsed: 0.0006060600280761719
ell 2, elapsed: 0.0003731250762939453
ell 1, elapsed: 0.0004630088806152344
ell 0, elapsed: 0.0003750324249267578
  0.616919 seconds (57.03 k allocations: 2.784 MiB)
elapsed: 0.00057220458984375
step:          0.064121 sec (0 allocations: 0 byte, 0.0% gc time)
swapping:      0.000935 sec (0 allocations: 0 byte, 0.0% gc time)
calc_Mellell!: 0.008769 sec (0 allocations: 0 byte, 0.0% gc time)
  t0 :  0.002335 sec (0 allocations: 0 byte, 0.0% gc time)
  tm2 : 0.085413 sec (0 allocations: 0 byte, 0.0% gc time)
  tm2s: 0.001792 sec (0 allocations: 0 byte, 0.0% gc time)
  tm4 : 0.225154 sec (0 allocations: 0 byte, 0.0% gc time)
  tp2 : 0.0 sec (0 allocations: 0 byte, 0.0% gc time)
  tp2s: 0.0 sec (0 allocations: 0 byte, 0.0% gc time)
  tp4 : 0.0 sec (0 allocations: 0 byte, 0.0% gc time)
calc_wtdll!:   0.332894 sec (9.879 k allocations: 1.044 MB, 0.0% gc time)
calc_wljj!:    0.040057 sec (689 allocations: 10.766 KB, 0.0% gc time)
mult_prefac!:  0.0 sec (0 allocations: 0 byte, 0.0% gc time)
convert:       0.0 sec (0 allocations: 0 byte, 0.0% gc time)
write:         0.058477 sec (0 allocations: 0 byte, 0.0% gc time)
test_rand_2f1: 0.0 sec (0 allocations: 0 byte, 0.0% gc time)
Closing outfile out/Ml21-cache.bin...   0.036733 seconds
  0.000514 seconds (52 allocations: 28.297 KiB)
make_phi():   0.002365 seconds (8.20 k allocations: 238.016 KiB)
  0.175644 seconds (146.69 k allocations: 3.629 MiB, 3.65% gc time)
tskip:       0.000927 sec (0 allocations: 0 byte, 0.0% gc time)
tread:       0.025491 sec (20 allocations: 10.703 KB, 0.0% gc time)
tmultphi:    0.013154 sec (0 allocations: 0 byte, 0.0% gc time)
tbrfft:      0.044847 sec (9.592 k allocations: 449.625 KB, 0.0% gc time)
tmultprefac: 0.030717 sec (0 allocations: 0 byte, 0.0% gc time)
toutfunc:    0.058486 sec (129.905 k allocations: 2.421 MB, 10.97% gc time)
Testing R=1.0 ... passed
Calculating fmax: 
  dlrec    = 4
  dlrecRg1 = -4
  q=1.1, R=0.9:	  0.660692 seconds (149.41 k allocations: 69.863 MiB, 4.94% gc time)

  0.660952 seconds (149.47 k allocations: 69.895 MiB, 4.94% gc time)
ℓ = 1202
Δℓ = 4
ΔℓRg1 = -4
N = 1600
q = 1.1
kmin = 1.0e-5
kmax = 100000.00000000004
χ0 = 0.023029999999999995
RR = RR.tsv
ℓmax = ℓmax.bin
f21 = f21.bin
kmin = 1.0e-5
kmax = 100000.0
dlrec    = 4
dlrecRg1 = -4
Output size: 5741568 bytes = 0.005347251892089844 GiB
Output size: 51264 bytes = 4.774332046508789e-5 GiB
Reading 'out/F21EllCache'...   0.001095 seconds (271 allocations: 84.719 KiB)
ellmax: 1202
lmaxcache: 1202
fell[:,1,1] = Complex{Float64}[1.3482014726274674e-57 - 3.302141236118086e-73im, 1.357860004724329e-57 - 3.3257978169518355e-73im]
ell 1202, elapsed: 0.0001430511474609375
ell 1201, elapsed: 0.0005490779876708984
ell 1200, elapsed: 0.0005800724029541016
ell 1199, elapsed: 0.0005350112915039062
ell 1198, elapsed: 0.0005490779876708984
ell 1002, elapsed: 0.01003408432006836
ell 1001, elapsed: 0.0006229877471923828
ell 1000, elapsed: 0.000576019287109375
ell 999, elapsed: 0.0005707740783691406
ell 998, elapsed: 0.0005638599395751953
ell 902, elapsed: 0.0051958560943603516
ell 901, elapsed: 0.0005970001220703125
ell 900, elapsed: 0.0005640983581542969
ell 899, elapsed: 0.0005519390106201172
ell 898, elapsed: 0.0005309581756591797
ell 802, elapsed: 0.0053958892822265625
ell 801, elapsed: 0.0004220008850097656
ell 800, elapsed: 0.0004229545593261719
ell 799, elapsed: 0.00042700767517089844
ell 798, elapsed: 0.0003249645233154297
ell 702, elapsed: 0.005548000335693359
ell 701, elapsed: 0.0003440380096435547
ell 700, elapsed: 0.0004031658172607422
ell 699, elapsed: 0.0004940032958984375
ell 698, elapsed: 0.0004379749298095703
ell 602, elapsed: 0.005567073822021484
ell 601, elapsed: 0.0004150867462158203
ell 600, elapsed: 0.00048804283142089844
ell 599, elapsed: 0.0003337860107421875
ell 598, elapsed: 0.00032401084899902344
ell 502, elapsed: 0.0055577754974365234
ell 501, elapsed: 0.00044989585876464844
ell 500, elapsed: 0.0004639625549316406
ell 499, elapsed: 0.00033211708068847656
ell 498, elapsed: 0.00033283233642578125
ell 402, elapsed: 0.005702018737792969
ell 401, elapsed: 0.0004239082336425781
ell 400, elapsed: 0.0004899501800537109
ell 399, elapsed: 0.00032901763916015625
ell 398, elapsed: 0.00032210350036621094
ell 302, elapsed: 0.005524873733520508
ell 301, elapsed: 0.0003440380096435547
ell 300, elapsed: 0.00045299530029296875
ell 299, elapsed: 0.0004470348358154297
ell 298, elapsed: 0.00046706199645996094
ell 202, elapsed: 0.0052127838134765625
ell 201, elapsed: 0.00047707557678222656
ell 200, elapsed: 0.00033593177795410156
ell 199, elapsed: 0.00032901763916015625
ell 198, elapsed: 0.0003399848937988281
ell 152, elapsed: 0.0028748512268066406
ell 151, elapsed: 0.00035309791564941406
ell 150, elapsed: 0.0003540515899658203
ell 149, elapsed: 0.0003459453582763672
ell 148, elapsed: 0.0003490447998046875
ell 127, elapsed: 0.0020728111267089844
ell 126, elapsed: 0.0003809928894042969
ell 125, elapsed: 0.0003609657287597656
ell 124, elapsed: 0.0003609657287597656
ell 123, elapsed: 0.0003619194030761719
ell 114, elapsed: 0.0008869171142578125
ell 113, elapsed: 0.00036406517028808594
ell 112, elapsed: 0.0003609657287597656
ell 111, elapsed: 0.0005309581756591797
ell 110, elapsed: 0.0005400180816650391
ell 102, elapsed: 0.0009169578552246094
ell 101, elapsed: 0.0004680156707763672
ell 100, elapsed: 0.0005331039428710938
ell 99, elapsed: 0.0004711151123046875
ell 98, elapsed: 0.00031304359436035156
ell 97, elapsed: 0.0005099773406982422
ell 96, elapsed: 0.0005521774291992188
ell 95, elapsed: 0.0003638267517089844
ell 94, elapsed: 0.00045609474182128906
ell 93, elapsed: 0.00036907196044921875
ell 92, elapsed: 0.0004570484161376953
ell 91, elapsed: 0.0003619194030761719
ell 90, elapsed: 0.0005450248718261719
ell 89, elapsed: 0.00036716461181640625
ell 88, elapsed: 0.00045108795166015625
ell 87, elapsed: 0.0003669261932373047
ell 86, elapsed: 0.0004611015319824219
ell 85, elapsed: 0.00036406517028808594
ell 84, elapsed: 0.0004439353942871094
ell 83, elapsed: 0.000370025634765625
ell 82, elapsed: 0.0007050037384033203
ell 81, elapsed: 0.0004088878631591797
ell 80, elapsed: 0.00045609474182128906
ell 79, elapsed: 0.000370025634765625
ell 78, elapsed: 0.00044989585876464844
ell 77, elapsed: 0.0003581047058105469
ell 76, elapsed: 0.0005960464477539062
ell 75, elapsed: 0.0004248619079589844
ell 74, elapsed: 0.0007579326629638672
ell 73, elapsed: 0.00037288665771484375
ell 72, elapsed: 0.00045800209045410156
ell 71, elapsed: 0.0004889965057373047
ell 70, elapsed: 0.0006210803985595703
ell 69, elapsed: 0.0003719329833984375
ell 68, elapsed: 0.0006310939788818359
ell 67, elapsed: 0.0003910064697265625
ell 66, elapsed: 0.0005729198455810547
ell 65, elapsed: 0.0004520416259765625
ell 64, elapsed: 0.0005991458892822266
ell 63, elapsed: 0.00043487548828125
ell 62, elapsed: 0.0004470348358154297
ell 61, elapsed: 0.0004839897155761719
ell 60, elapsed: 0.0005118846893310547
ell 59, elapsed: 0.0003609657287597656
ell 58, elapsed: 0.0004589557647705078
ell 57, elapsed: 0.0003669261932373047
ell 56, elapsed: 0.0006260871887207031
ell 55, elapsed: 0.00041103363037109375
ell 54, elapsed: 0.0005807876586914062
ell 53, elapsed: 0.000537872314453125
ell 52, elapsed: 0.0004699230194091797
ell 51, elapsed: 0.0005388259887695312
ell 50, elapsed: 0.0005769729614257812
ell 49, elapsed: 0.0004749298095703125
ell 48, elapsed: 0.0005819797515869141
ell 47, elapsed: 0.0006010532379150391
ell 46, elapsed: 0.0005040168762207031
ell 45, elapsed: 0.0005168914794921875
ell 44, elapsed: 0.0005180835723876953
ell 43, elapsed: 0.0003600120544433594
ell 42, elapsed: 0.0005869865417480469
ell 41, elapsed: 0.00043487548828125
ell 40, elapsed: 0.0005309581756591797
ell 39, elapsed: 0.000370025634765625
ell 38, elapsed: 0.000453948974609375
ell 37, elapsed: 0.0003590583801269531
ell 36, elapsed: 0.00043702125549316406
ell 35, elapsed: 0.0003609657287597656
ell 34, elapsed: 0.00045180320739746094
ell 33, elapsed: 0.0003631114959716797
ell 32, elapsed: 0.0004410743713378906
ell 31, elapsed: 0.0004551410675048828
ell 30, elapsed: 0.00044798851013183594
ell 29, elapsed: 0.0003590583801269531
ell 28, elapsed: 0.000453948974609375
ell 27, elapsed: 0.0003719329833984375
ell 26, elapsed: 0.00044989585876464844
ell 25, elapsed: 0.00037097930908203125
ell 24, elapsed: 0.00044918060302734375
ell 23, elapsed: 0.0005819797515869141
ell 22, elapsed: 0.0005600452423095703
ell 21, elapsed: 0.0003681182861328125
ell 20, elapsed: 0.0005919933319091797
ell 19, elapsed: 0.0004279613494873047
ell 18, elapsed: 0.00044798851013183594
ell 17, elapsed: 0.0003647804260253906
ell 16, elapsed: 0.0004589557647705078
ell 15, elapsed: 0.00037407875061035156
ell 14, elapsed: 0.00044608116149902344
ell 13, elapsed: 0.0005347728729248047
ell 12, elapsed: 0.0005791187286376953
ell 11, elapsed: 0.00036215782165527344
ell 10, elapsed: 0.00045108795166015625
ell 9, elapsed: 0.00036907196044921875
ell 8, elapsed: 0.0005679130554199219
ell 7, elapsed: 0.0003612041473388672
ell 6, elapsed: 0.0004589557647705078
ell 5, elapsed: 0.0004940032958984375
ell 4, elapsed: 0.0005559921264648438
ell 3, elapsed: 0.0003578662872314453
ell 2, elapsed: 0.00043892860412597656
ell 1, elapsed: 0.0003609657287597656
ell 0, elapsed: 0.0006868839263916016
  0.151383 seconds (13.00 k allocations: 675.063 KiB)
elapsed: 0.0005419254302978516
step:          0.060747 sec (0 allocations: 0 byte, 0.0% gc time)
swapping:      0.000554 sec (0 allocations: 0 byte, 0.0% gc time)
calc_Mellell!: 0.00136 sec (0 allocations: 0 byte, 0.0% gc time)
  t0 :  0.000369 sec (0 allocations: 0 byte, 0.0% gc time)
  tm2 : 0.01302 sec (0 allocations: 0 byte, 0.0% gc time)
  tm2s: 0.000305 sec (0 allocations: 0 byte, 0.0% gc time)
  tm4 : 0.034607 sec (0 allocations: 0 byte, 0.0% gc time)
  tp2 : 0.0 sec (0 allocations: 0 byte, 0.0% gc time)
  tp2s: 0.0 sec (0 allocations: 0 byte, 0.0% gc time)
  tp4 : 0.0 sec (0 allocations: 0 byte, 0.0% gc time)
calc_wtdll!:   0.048983 sec (1.344 k allocations: 147.0 KB, 0.0% gc time)
calc_wljj!:    0.004072 sec (6 allocations: 96 byte, 0.0% gc time)
mult_prefac!:  0.0 sec (0 allocations: 0 byte, 0.0% gc time)
convert:       0.0 sec (0 allocations: 0 byte, 0.0% gc time)
write:         0.005814 sec (0 allocations: 0 byte, 0.0% gc time)
test_rand_2f1: 0.0 sec (0 allocations: 0 byte, 0.0% gc time)
Closing outfile out/Ml21-cache.bin...   0.004150 seconds
  0.000553 seconds (52 allocations: 28.297 KiB)
make_phi():   0.002679 seconds (8.20 k allocations: 238.016 KiB)
  0.016947 seconds (12.10 k allocations: 322.000 KiB)
tskip:       2.3e-5 sec (0 allocations: 0 byte, 0.0% gc time)
tread:       0.002555 sec (20 allocations: 2.188 KB, 0.0% gc time)
tmultphi:    0.00139 sec (0 allocations: 0 byte, 0.0% gc time)
tbrfft:      0.004446 sec (896 allocations: 42.0 KB, 0.0% gc time)
tmultprefac: 0.003221 sec (0 allocations: 0 byte, 0.0% gc time)
toutfunc:    0.005231 sec (10.528 k allocations: 206.5 KB, 0.0% gc time)
Testing R=0.9 ... passed
Calculating fmax: 
  dlrec    = 4
  dlrecRg1 = -4
  q=1.1, R=0.8:	  0.471878 seconds (145.59 k allocations: 68.095 MiB, 1.93% gc time)

  0.475525 seconds (145.66 k allocations: 68.127 MiB, 1.92% gc time)
ℓ = 1202
Δℓ = 4
ΔℓRg1 = -4
N = 1600
q = 1.1
kmin = 1.0e-5
kmax = 100000.00000000004
χ0 = 0.023029999999999995
RR = RR.tsv
ℓmax = ℓmax.bin
f21 = f21.bin
kmin = 1.0e-5
kmax = 100000.0
dlrec    = 4
dlrecRg1 = -4
Output size: 5741568 bytes = 0.005347251892089844 GiB
Output size: 51264 bytes = 4.774332046508789e-5 GiB
Reading 'out/F21EllCache'...   0.001082 seconds (271 allocations: 84.719 KiB)
ellmax: 1202
lmaxcache: 1202
fell[:,1,1] = Complex{Float64}[7.519068145690986e-120 - 1.8416405474382574e-135im, 7.541664537386155e-120 - 1.847175067190611e-135im]
ell 1202, elapsed: 0.00015997886657714844
ell 1201, elapsed: 0.0007901191711425781
ell 1200, elapsed: 0.0005350112915039062
ell 1199, elapsed: 0.0007309913635253906
ell 1198, elapsed: 0.0006690025329589844
ell 1002, elapsed: 0.010066986083984375
ell 1001, elapsed: 0.0005309581756591797
ell 1000, elapsed: 0.0005290508270263672
ell 999, elapsed: 0.0005099773406982422
ell 998, elapsed: 0.0005099773406982422
ell 902, elapsed: 0.005688905715942383
ell 901, elapsed: 0.0005388259887695312
ell 900, elapsed: 0.0005481243133544922
ell 899, elapsed: 0.0007569789886474609
ell 898, elapsed: 0.0005471706390380859
ell 802, elapsed: 0.005919933319091797
ell 801, elapsed: 0.0005559921264648438
ell 800, elapsed: 0.0005300045013427734
ell 799, elapsed: 0.0005228519439697266
ell 798, elapsed: 0.0005459785461425781
ell 702, elapsed: 0.0057718753814697266
ell 701, elapsed: 0.0005488395690917969
ell 700, elapsed: 0.0005497932434082031
ell 699, elapsed: 0.0005440711975097656
ell 698, elapsed: 0.0005290508270263672
ell 602, elapsed: 0.005435943603515625
ell 601, elapsed: 0.0005629062652587891
ell 600, elapsed: 0.0005190372467041016
ell 599, elapsed: 0.0005168914794921875
ell 598, elapsed: 0.0005099773406982422
ell 502, elapsed: 0.005383968353271484
ell 501, elapsed: 0.0005700588226318359
ell 500, elapsed: 0.0005300045013427734
ell 499, elapsed: 0.0005509853363037109
ell 498, elapsed: 0.00049591064453125
ell 402, elapsed: 0.0059909820556640625
ell 401, elapsed: 0.0005490779876708984
ell 400, elapsed: 0.000576019287109375
ell 399, elapsed: 0.0005288124084472656
ell 398, elapsed: 0.0005040168762207031
ell 302, elapsed: 0.0058400630950927734
ell 301, elapsed: 0.0005497932434082031
ell 300, elapsed: 0.0005249977111816406
ell 299, elapsed: 0.0005071163177490234
ell 298, elapsed: 0.0005202293395996094
ell 202, elapsed: 0.005923032760620117
ell 201, elapsed: 0.0006670951843261719
ell 200, elapsed: 0.0006380081176757812
ell 199, elapsed: 0.0006740093231201172
ell 198, elapsed: 0.0005118846893310547
ell 152, elapsed: 0.00304412841796875
ell 151, elapsed: 0.0006659030914306641
ell 150, elapsed: 0.0005269050598144531
ell 149, elapsed: 0.0007390975952148438
ell 148, elapsed: 0.0007510185241699219
ell 127, elapsed: 0.0017440319061279297
ell 126, elapsed: 0.0007588863372802734
ell 125, elapsed: 0.0005178451538085938
ell 124, elapsed: 0.0005171298980712891
ell 123, elapsed: 0.0005009174346923828
ell 114, elapsed: 0.0012691020965576172
ell 113, elapsed: 0.0005381107330322266
ell 112, elapsed: 0.0005259513854980469
ell 111, elapsed: 0.0005140304565429688
ell 110, elapsed: 0.0004990100860595703
ell 102, elapsed: 0.001116037368774414
ell 101, elapsed: 0.0006859302520751953
ell 100, elapsed: 0.0007162094116210938
ell 99, elapsed: 0.0005300045013427734
ell 98, elapsed: 0.0007538795471191406
ell 97, elapsed: 0.0007889270782470703
ell 96, elapsed: 0.0006780624389648438
ell 95, elapsed: 0.0005578994750976562
ell 94, elapsed: 0.0008680820465087891
ell 93, elapsed: 0.000576019287109375
ell 92, elapsed: 0.0006639957427978516
ell 91, elapsed: 0.0005629062652587891
ell 90, elapsed: 0.0006730556488037109
ell 89, elapsed: 0.0005609989166259766
ell 88, elapsed: 0.0006690025329589844
ell 87, elapsed: 0.0008149147033691406
ell 86, elapsed: 0.0009050369262695312
ell 85, elapsed: 0.0005459785461425781
ell 84, elapsed: 0.0009219646453857422
ell 83, elapsed: 0.0008480548858642578
ell 82, elapsed: 0.0006690025329589844
ell 81, elapsed: 0.0005970001220703125
ell 80, elapsed: 0.000698089599609375
ell 79, elapsed: 0.0005788803100585938
ell 78, elapsed: 0.0004820823669433594
ell 77, elapsed: 0.0004029273986816406
ell 76, elapsed: 0.0004210472106933594
ell 75, elapsed: 0.0002868175506591797
ell 74, elapsed: 0.00033092498779296875
ell 73, elapsed: 0.00026607513427734375
ell 72, elapsed: 0.00032591819763183594
ell 71, elapsed: 0.0002651214599609375
ell 70, elapsed: 0.00032401084899902344
ell 69, elapsed: 0.0003139972686767578
ell 68, elapsed: 0.00032901763916015625
ell 67, elapsed: 0.00026798248291015625
ell 66, elapsed: 0.0003249645233154297
ell 65, elapsed: 0.00026607513427734375
ell 64, elapsed: 0.00032711029052734375
ell 63, elapsed: 0.0002689361572265625
ell 62, elapsed: 0.00032901763916015625
ell 61, elapsed: 0.0002689361572265625
ell 60, elapsed: 0.00033402442932128906
ell 59, elapsed: 0.00026988983154296875
ell 58, elapsed: 0.0004119873046875
ell 57, elapsed: 0.0004780292510986328
ell 56, elapsed: 0.0006310939788818359
ell 55, elapsed: 0.0004010200500488281
ell 54, elapsed: 0.0004889965057373047
ell 53, elapsed: 0.0004029273986816406
ell 52, elapsed: 0.0004899501800537109
ell 51, elapsed: 0.00041794776916503906
ell 50, elapsed: 0.0004949569702148438
ell 49, elapsed: 0.0004029273986816406
ell 48, elapsed: 0.0004889965057373047
ell 47, elapsed: 0.00040912628173828125
ell 46, elapsed: 0.0004940032958984375
ell 45, elapsed: 0.00041294097900390625
ell 44, elapsed: 0.0004868507385253906
ell 43, elapsed: 0.0005929470062255859
ell 42, elapsed: 0.0005218982696533203
ell 41, elapsed: 0.00038504600524902344
ell 40, elapsed: 0.00047707557678222656
[...]
ell 782, elapsed: 0.001483917236328125
ell 781, elapsed: 0.0007421970367431641
ell 780, elapsed: 0.0007441043853759766
ell 779, elapsed: 0.0007419586181640625
ell 778, elapsed: 0.0007231235504150391
ell 772, elapsed: 0.0014319419860839844
ell 771, elapsed: 0.0007359981536865234
ell 770, elapsed: 0.0007421970367431641
ell 769, elapsed: 0.0007410049438476562
ell 768, elapsed: 0.0007410049438476562
ell 762, elapsed: 0.0014870166778564453
ell 761, elapsed: 0.0007610321044921875
ell 760, elapsed: 0.0007541179656982422
ell 759, elapsed: 0.0007460117340087891
ell 758, elapsed: 0.0007529258728027344
ell 752, elapsed: 0.0014920234680175781
ell 751, elapsed: 0.0007519721984863281
ell 750, elapsed: 0.0007350444793701172
ell 749, elapsed: 0.00074005126953125
ell 748, elapsed: 0.0007410049438476562
ell 742, elapsed: 0.0014541149139404297
ell 741, elapsed: 0.0007309913635253906
ell 740, elapsed: 0.0007371902465820312
ell 739, elapsed: 0.0007379055023193359
ell 738, elapsed: 0.0007410049438476562
ell 732, elapsed: 0.0014379024505615234
ell 731, elapsed: 0.0007238388061523438
ell 730, elapsed: 0.0007281303405761719
ell 729, elapsed: 0.0007150173187255859
ell 728, elapsed: 0.00074005126953125
ell 722, elapsed: 0.0014300346374511719
ell 721, elapsed: 0.0007381439208984375
ell 720, elapsed: 0.00074005126953125
ell 719, elapsed: 0.0008499622344970703
ell 718, elapsed: 0.0007388591766357422
ell 712, elapsed: 0.0014770030975341797
ell 711, elapsed: 0.0007398128509521484
ell 710, elapsed: 0.0007419586181640625
ell 709, elapsed: 0.0007350444793701172
ell 708, elapsed: 0.0007328987121582031
ell 702, elapsed: 0.0014560222625732422
ell 701, elapsed: 0.0008130073547363281
ell 700, elapsed: 0.0007481575012207031
ell 699, elapsed: 0.0007431507110595703
ell 698, elapsed: 0.0007481575012207031
ell 692, elapsed: 0.0015079975128173828
ell 691, elapsed: 0.0007569789886474609
ell 690, elapsed: 0.0007469654083251953
ell 689, elapsed: 0.0007419586181640625
ell 688, elapsed: 0.0007410049438476562
ell 682, elapsed: 0.0014579296112060547
ell 681, elapsed: 0.0007371902465820312
ell 680, elapsed: 0.0007350444793701172
ell 679, elapsed: 0.0007379055023193359
ell 678, elapsed: 0.0007290840148925781
ell 672, elapsed: 0.0014591217041015625
ell 671, elapsed: 0.0007429122924804688
ell 670, elapsed: 0.0007240772247314453
ell 669, elapsed: 0.0007350444793701172
ell 668, elapsed: 0.0007390975952148438
ell 662, elapsed: 0.0014491081237792969
ell 661, elapsed: 0.0007219314575195312
ell 660, elapsed: 0.0007390975952148438
ell 659, elapsed: 0.00074005126953125
ell 658, elapsed: 0.0007359981536865234
ell 652, elapsed: 0.0014541149139404297
ell 651, elapsed: 0.0007619857788085938
ell 650, elapsed: 0.0007379055023193359
ell 649, elapsed: 0.0007429122924804688
ell 648, elapsed: 0.0007369518280029297
ell 642, elapsed: 0.0014939308166503906
ell 641, elapsed: 0.0007560253143310547
ell 640, elapsed: 0.000743865966796875
ell 639, elapsed: 0.00074005126953125
ell 638, elapsed: 0.0007309913635253906
ell 632, elapsed: 0.0014388561248779297
ell 631, elapsed: 0.0007369518280029297
ell 630, elapsed: 0.000743865966796875
ell 629, elapsed: 0.0007450580596923828
ell 628, elapsed: 0.0007610321044921875
ell 622, elapsed: 0.0014929771423339844
ell 621, elapsed: 0.0007359981536865234
ell 620, elapsed: 0.0007328987121582031
ell 619, elapsed: 0.0007610321044921875
ell 618, elapsed: 0.0007781982421875
ell 612, elapsed: 0.0014660358428955078
ell 611, elapsed: 0.0007450580596923828
ell 610, elapsed: 0.0008440017700195312
ell 609, elapsed: 0.0007371902465820312
ell 608, elapsed: 0.0007379055023193359
ell 602, elapsed: 0.0014510154724121094
ell 601, elapsed: 0.0008349418640136719
ell 600, elapsed: 0.0007441043853759766
ell 599, elapsed: 0.0007212162017822266
ell 598, elapsed: 0.0007240772247314453
ell 592, elapsed: 0.0015838146209716797
ell 591, elapsed: 0.0007469654083251953
ell 590, elapsed: 0.0007340908050537109
ell 589, elapsed: 0.0007350444793701172
ell 588, elapsed: 0.0007369518280029297
ell 582, elapsed: 0.0016009807586669922
ell 581, elapsed: 0.0007350444793701172
ell 580, elapsed: 0.0007271766662597656
ell 579, elapsed: 0.0007288455963134766
ell 578, elapsed: 0.0007429122924804688
ell 572, elapsed: 0.001466989517211914
ell 571, elapsed: 0.0007450580596923828
ell 570, elapsed: 0.0008461475372314453
ell 569, elapsed: 0.0007419586181640625
ell 568, elapsed: 0.0007159709930419922
ell 562, elapsed: 0.0014531612396240234
ell 561, elapsed: 0.0008230209350585938
ell 560, elapsed: 0.0007300376892089844
ell 559, elapsed: 0.0007250308990478516
ell 558, elapsed: 0.0007328987121582031
ell 552, elapsed: 0.0014348030090332031
ell 551, elapsed: 0.000720977783203125
ell 550, elapsed: 0.0007231235504150391
ell 549, elapsed: 0.0007460117340087891
ell 548, elapsed: 0.0007750988006591797
ell 542, elapsed: 0.0016908645629882812
ell 541, elapsed: 0.0007688999176025391
ell 540, elapsed: 0.0007798671722412109
ell 539, elapsed: 0.0007610321044921875
ell 538, elapsed: 0.0008671283721923828
ell 532, elapsed: 0.0017161369323730469
ell 531, elapsed: 0.0007648468017578125
ell 530, elapsed: 0.0007600784301757812
ell 529, elapsed: 0.0007569789886474609
ell 528, elapsed: 0.0007491111755371094
ell 522, elapsed: 0.0017399787902832031
ell 521, elapsed: 0.0008120536804199219
ell 520, elapsed: 0.0007450580596923828
ell 519, elapsed: 0.0007529258728027344
ell 518, elapsed: 0.0007448196411132812
ell 512, elapsed: 0.001619100570678711
ell 511, elapsed: 0.0007801055908203125
ell 510, elapsed: 0.0007719993591308594
ell 509, elapsed: 0.0007758140563964844
ell 508, elapsed: 0.0007588863372802734
ell 502, elapsed: 0.0020148754119873047
ell 501, elapsed: 0.000698089599609375
ell 500, elapsed: 0.0007421970367431641
ell 499, elapsed: 0.000804901123046875
ell 498, elapsed: 0.0007250308990478516
ell 492, elapsed: 0.0014150142669677734
ell 491, elapsed: 0.0007359981536865234
ell 490, elapsed: 0.0007510185241699219
ell 489, elapsed: 0.0007390975952148438
ell 488, elapsed: 0.0007359981536865234
ell 482, elapsed: 0.0014061927795410156
ell 481, elapsed: 0.0007569789886474609
ell 480, elapsed: 0.0007569789886474609
ell 479, elapsed: 0.0007328987121582031
ell 478, elapsed: 0.0007560253143310547
ell 472, elapsed: 0.0014739036560058594
ell 471, elapsed: 0.0007419586181640625
ell 470, elapsed: 0.0007510185241699219
ell 469, elapsed: 0.0007450580596923828
ell 468, elapsed: 0.0007259845733642578
ell 462, elapsed: 0.0014309883117675781
ell 461, elapsed: 0.0007319450378417969
ell 460, elapsed: 0.0007309913635253906
ell 459, elapsed: 0.0007309913635253906
ell 458, elapsed: 0.0007309913635253906
ell 452, elapsed: 0.001416921615600586
ell 451, elapsed: 0.0007328987121582031
ell 450, elapsed: 0.0007410049438476562
ell 449, elapsed: 0.0007340908050537109
ell 448, elapsed: 0.0007491111755371094
ell 442, elapsed: 0.0014300346374511719
ell 441, elapsed: 0.0007479190826416016
ell 440, elapsed: 0.0007359981536865234
ell 439, elapsed: 0.0007908344268798828
ell 438, elapsed: 0.0007529258728027344
ell 432, elapsed: 0.0014209747314453125
ell 431, elapsed: 0.0007369518280029297
ell 430, elapsed: 0.0007600784301757812
ell 429, elapsed: 0.0007300376892089844
ell 428, elapsed: 0.0007319450378417969
ell 422, elapsed: 0.0014469623565673828
ell 421, elapsed: 0.0007579326629638672
ell 420, elapsed: 0.0007398128509521484
ell 419, elapsed: 0.0007350444793701172
ell 418, elapsed: 0.0007419586181640625
ell 412, elapsed: 0.0014450550079345703
ell 411, elapsed: 0.0007290840148925781
ell 410, elapsed: 0.0007250308990478516
ell 409, elapsed: 0.0007219314575195312
ell 408, elapsed: 0.0007359981536865234
ell 402, elapsed: 0.0016820430755615234
ell 401, elapsed: 0.0007519721984863281
ell 400, elapsed: 0.0007560253143310547
ell 399, elapsed: 0.0007600784301757812
ell 398, elapsed: 0.0007669925689697266
ell 392, elapsed: 0.0015091896057128906
ell 391, elapsed: 0.0007688999176025391
ell 390, elapsed: 0.000759124755859375
ell 389, elapsed: 0.0010709762573242188
ell 388, elapsed: 0.0007739067077636719
ell 382, elapsed: 0.0015408992767333984
ell 381, elapsed: 0.0012810230255126953
ell 380, elapsed: 0.0008418560028076172
ell 379, elapsed: 0.0007851123809814453
ell 378, elapsed: 0.0008680820465087891
ell 372, elapsed: 0.006514787673950195
ell 371, elapsed: 0.0007989406585693359
ell 370, elapsed: 0.0007579326629638672
ell 369, elapsed: 0.001127004623413086
ell 368, elapsed: 0.0007140636444091797
ell 362, elapsed: 0.001435995101928711
ell 361, elapsed: 0.0007059574127197266
ell 360, elapsed: 0.0012688636779785156
ell 359, elapsed: 0.0007069110870361328
ell 358, elapsed: 0.0007190704345703125
ell 352, elapsed: 0.001524209976196289
ell 351, elapsed: 0.0007300376892089844
ell 350, elapsed: 0.0007200241088867188
ell 349, elapsed: 0.0007269382476806641
ell 348, elapsed: 0.0007250308990478516
ell 342, elapsed: 0.0015170574188232422
ell 341, elapsed: 0.0007710456848144531
ell 340, elapsed: 0.0007550716400146484
ell 339, elapsed: 0.0007710456848144531
ell 338, elapsed: 0.0007648468017578125
ell 332, elapsed: 0.0014150142669677734
ell 331, elapsed: 0.0007390975952148438
ell 330, elapsed: 0.00074005126953125
ell 329, elapsed: 0.0007848739624023438
ell 328, elapsed: 0.0007698535919189453
ell 322, elapsed: 0.0014190673828125
ell 321, elapsed: 0.0007410049438476562
ell 320, elapsed: 0.0007488727569580078
ell 319, elapsed: 0.0007650852203369141
ell 318, elapsed: 0.0007669925689697266
ell 312, elapsed: 0.001425027847290039
ell 311, elapsed: 0.0007538795471191406
ell 310, elapsed: 0.0007531642913818359
ell 309, elapsed: 0.0007660388946533203
ell 308, elapsed: 0.0007240772247314453
ell 302, elapsed: 0.0013921260833740234
ell 301, elapsed: 0.0007388591766357422
ell 300, elapsed: 0.0007429122924804688
ell 299, elapsed: 0.0007548332214355469
ell 298, elapsed: 0.0007550716400146484
ell 292, elapsed: 0.0015151500701904297
ell 291, elapsed: 0.0007610321044921875
ell 290, elapsed: 0.0007460117340087891
ell 289, elapsed: 0.0007500648498535156
ell 288, elapsed: 0.000888824462890625
ell 282, elapsed: 0.0014889240264892578
ell 281, elapsed: 0.0007269382476806641
ell 280, elapsed: 0.0007169246673583984
ell 279, elapsed: 0.0010159015655517578
ell 278, elapsed: 0.0007390975952148438
ell 272, elapsed: 0.0014448165893554688
ell 271, elapsed: 0.0007190704345703125
ell 270, elapsed: 0.0008130073547363281
ell 269, elapsed: 0.0006091594696044922
ell 268, elapsed: 0.0007138252258300781
ell 262, elapsed: 0.0017008781433105469
ell 261, elapsed: 0.0007619857788085938
ell 260, elapsed: 0.0007319450378417969
ell 259, elapsed: 0.0007340908050537109
ell 258, elapsed: 0.0007269382476806641
ell 252, elapsed: 0.0015740394592285156
ell 251, elapsed: 0.0007700920104980469
ell 250, elapsed: 0.0007550716400146484
ell 249, elapsed: 0.0007500648498535156
ell 248, elapsed: 0.0007660388946533203
ell 242, elapsed: 0.0018007755279541016
ell 241, elapsed: 0.0007669925689697266
ell 240, elapsed: 0.0007519721984863281
ell 239, elapsed: 0.0009150505065917969
ell 238, elapsed: 0.0007569789886474609
ell 232, elapsed: 0.0014300346374511719
ell 231, elapsed: 0.0007259845733642578
ell 230, elapsed: 0.0009000301361083984
ell 229, elapsed: 0.0008091926574707031
ell 228, elapsed: 0.0007970333099365234
ell 222, elapsed: 0.001505136489868164
ell 221, elapsed: 0.0007798671722412109
ell 220, elapsed: 0.0008020401000976562
ell 219, elapsed: 0.0007929801940917969
ell 218, elapsed: 0.0008339881896972656
ell 212, elapsed: 0.0015079975128173828
ell 211, elapsed: 0.00078582763671875
ell 210, elapsed: 0.000804901123046875
ell 209, elapsed: 0.0007748603820800781
ell 208, elapsed: 0.0007951259613037109
ell 202, elapsed: 0.0016930103302001953
ell 201, elapsed: 0.0007319450378417969
ell 200, elapsed: 0.0007290840148925781
ell 199, elapsed: 0.0007359981536865234
ell 198, elapsed: 0.0007381439208984375
ell 192, elapsed: 0.0016050338745117188
ell 191, elapsed: 0.0007388591766357422
ell 190, elapsed: 0.0007429122924804688
ell 189, elapsed: 0.0007259845733642578
ell 188, elapsed: 0.00109100341796875
ell 182, elapsed: 0.0014660358428955078
ell 181, elapsed: 0.0007319450378417969
ell 180, elapsed: 0.0008230209350585938
ell 179, elapsed: 0.0007309913635253906
ell 178, elapsed: 0.0007331371307373047
ell 172, elapsed: 0.0014748573303222656
ell 171, elapsed: 0.0008418560028076172
ell 170, elapsed: 0.0007369518280029297
ell 169, elapsed: 0.0007290840148925781
ell 168, elapsed: 0.0007290840148925781
ell 162, elapsed: 0.00156402587890625
ell 161, elapsed: 0.0007381439208984375
ell 160, elapsed: 0.0007259845733642578
ell 159, elapsed: 0.0007131099700927734
ell 158, elapsed: 0.0007200241088867188
ell 152, elapsed: 0.0015399456024169922
ell 151, elapsed: 0.0007128715515136719
ell 150, elapsed: 0.0006999969482421875
ell 149, elapsed: 0.0007071495056152344
ell 148, elapsed: 0.0007920265197753906
ell 142, elapsed: 0.001399993896484375
ell 141, elapsed: 0.0007281303405761719
ell 140, elapsed: 0.0007369518280029297
ell 139, elapsed: 0.0007379055023193359
ell 138, elapsed: 0.0007450580596923828
ell 132, elapsed: 0.001399993896484375
ell 131, elapsed: 0.0007338523864746094
ell 130, elapsed: 0.0007500648498535156
ell 129, elapsed: 0.0007321834564208984
ell 128, elapsed: 0.000698089599609375
ell 122, elapsed: 0.0014309883117675781
ell 121, elapsed: 0.0006911754608154297
ell 120, elapsed: 0.0007278919219970703
ell 119, elapsed: 0.0007269382476806641
ell 118, elapsed: 0.0007028579711914062
ell 112, elapsed: 0.0014290809631347656
ell 111, elapsed: 0.0007348060607910156
ell 110, elapsed: 0.0007150173187255859
ell 109, elapsed: 0.0007088184356689453
ell 108, elapsed: 0.0007278919219970703
ell 102, elapsed: 0.0014638900756835938
ell 101, elapsed: 0.0031709671020507812
ell 100, elapsed: 0.0036249160766601562
ell 99, elapsed: 0.0031850337982177734
ell 98, elapsed: 0.0033080577850341797
ell 92, elapsed: 0.005938053131103516
ell 91, elapsed: 0.00344085693359375
ell 90, elapsed: 0.0030379295349121094
ell 89, elapsed: 0.0033020973205566406
ell 88, elapsed: 0.003422975540161133
ell 82, elapsed: 0.0060100555419921875
ell 81, elapsed: 0.0029439926147460938
ell 80, elapsed: 0.003620147705078125
ell 79, elapsed: 0.0032699108123779297
ell 78, elapsed: 0.002991914749145508
ell 72, elapsed: 0.006353855133056641
ell 71, elapsed: 0.0030210018157958984
ell 70, elapsed: 0.0033059120178222656
ell 69, elapsed: 0.003484010696411133
ell 68, elapsed: 0.0032689571380615234
ell 62, elapsed: 0.0056591033935546875
ell 61, elapsed: 0.0033249855041503906
ell 60, elapsed: 0.0032918453216552734
ell 59, elapsed: 0.0034821033477783203
ell 58, elapsed: 0.0029380321502685547
ell 52, elapsed: 0.006292819976806641
ell 51, elapsed: 0.0035889148712158203
ell 50, elapsed: 0.002894878387451172
ell 49, elapsed: 0.003407001495361328
ell 48, elapsed: 0.003968000411987305
ell 42, elapsed: 0.0059969425201416016
ell 41, elapsed: 0.003319978713989258
ell 40, elapsed: 0.003274202346801758
ell 39, elapsed: 0.003247976303100586
ell 38, elapsed: 0.003139019012451172
ell 32, elapsed: 0.006326913833618164
ell 31, elapsed: 0.0037069320678710938
ell 30, elapsed: 0.004208087921142578
ell 29, elapsed: 0.004405021667480469
ell 28, elapsed: 0.003762960433959961
ell 22, elapsed: 0.006209850311279297
ell 21, elapsed: 0.0032911300659179688
ell 20, elapsed: 0.003520965576171875
ell 19, elapsed: 0.003245830535888672
ell 18, elapsed: 0.0029540061950683594
ell 12, elapsed: 0.006600141525268555
ell 11, elapsed: 0.0034668445587158203
ell 10, elapsed: 0.0034248828887939453
ell 9, elapsed: 0.003484010696411133
ell 8, elapsed: 0.0031998157501220703
  0.763328 seconds (74.14 k allocations: 12.051 MiB)
elapsed: 0.0039899349212646484
step:          0.06569 sec (0 allocations: 0 byte, 0.0% gc time)
swapping:      0.000806 sec (0 allocations: 0 byte, 0.0% gc time)
calc_Mellell!: 0.030493 sec (0 allocations: 0 byte, 0.0% gc time)
  t0 :  0.010866 sec (0 allocations: 0 byte, 0.0% gc time)
  tm2 : 0.064735 sec (0 allocations: 0 byte, 0.0% gc time)
  tm2s: 0.009197 sec (0 allocations: 0 byte, 0.0% gc time)
  tm4 : 0.176258 sec (0 allocations: 0 byte, 0.0% gc time)
  tp2 : 0.0 sec (0 allocations: 0 byte, 0.0% gc time)
  tp2s: 0.0 sec (0 allocations: 0 byte, 0.0% gc time)
  tp4 : 0.0 sec (0 allocations: 0 byte, 0.0% gc time)
calc_wtdll!:   0.505172 sec (49.2 k allocations: 11.133 MB, 0.0% gc time)
calc_wljj!:    0.041687 sec (69 allocations: 1.078 KB, 0.0% gc time)
mult_prefac!:  0.0 sec (0 allocations: 0 byte, 0.0% gc time)
convert:       0.0 sec (0 allocations: 0 byte, 0.0% gc time)
write:         0.037136 sec (0 allocations: 0 byte, 0.0% gc time)
test_rand_2f1: 0.0 sec (0 allocations: 0 byte, 0.0% gc time)
Closing outfile out/MlCache/MlCache.bin...   0.000011 seconds
xi, l=0, nu=0:   0.446885 seconds (556.07 k allocations: 27.070 MiB, 3.14% gc time)
xi, l=0, nu=-2:  0.002163 seconds (144 allocations: 149.563 KiB)
Created 'out/xi.tsv'.
  q=1.1, R=0.6:	  1.053877 seconds (373.06 k allocations: 174.511 MiB, 2.56% gc time)
  q=1.1, R=0.7:	  1.211154 seconds (391.29 k allocations: 182.916 MiB, 2.63% gc time)
  q=1.1, R=0.8:	  1.147310 seconds (383.81 k allocations: 179.466 MiB, 1.63% gc time)
  q=1.1, R=0.9:	  1.214127 seconds (376.40 k allocations: 176.056 MiB, 1.52% gc time)
  q=1.1, R=0.998:	 23.254600 seconds (10.67 M allocations: 831.832 MiB, 0.27% gc time)
  q=1.1, R=1.0:	  0.046285 seconds (12.29 k allocations: 9.129 MiB, 5.51% gc time)

ℓ = 1000
Δℓ = 4
ΔℓRg1 = -4
N = 4096
q = 1.1
kmin = 1.0e-5
kmax = 1000.0
χ0 = 0.001
RR = RR.tsv
ℓmax = ℓmax.bin
f21 = f21.bin
kmin = 1.0e-5
kmax = 1000.0
dlrec    = 4
dlrecRg1 = -4
Output size: 1573632 bytes = 0.0014655590057373047 GiB
Output size: 786816 bytes = 0.0007327795028686523 GiB
Reading 'out/F21EllCache'...   0.001482 seconds (272 allocations: 533.594 KiB)
ellmax: 1002
lmaxcache: 1000
fell[:,1,1] = Complex{Float64}[1.7262928128202118e-224 - 4.2281979352226944e-240im, 1.7282693092099662e-224 - 4.233038955177176e-240im]
ell 1002, elapsed: 2.288818359375e-5
ell 1001, elapsed: 0.0010678768157958984
ell 1000, elapsed: 0.0011849403381347656
ell 999, elapsed: 0.005263090133666992
ell 998, elapsed: 0.005281925201416016
ell 44, elapsed: 0.6755039691925049
ell 43, elapsed: 0.0055081844329833984
ell 42, elapsed: 0.004888057708740234
ell 41, elapsed: 0.00487208366394043
ell 40, elapsed: 0.005976200103759766
  0.718391 seconds (4.65 k allocations: 318.375 KiB)
elapsed: 0.007146120071411133
step:          0.673411 sec (0 allocations: 0 byte, 0.0% gc time)
swapping:      0.000578 sec (0 allocations: 0 byte, 0.0% gc time)
calc_Mellell!: 0.000986 sec (0 allocations: 0 byte, 0.0% gc time)
  t0 :  0.000855 sec (0 allocations: 0 byte, 0.0% gc time)
  tm2 : 0.009322 sec (0 allocations: 0 byte, 0.0% gc time)
  tm2s: 0.000674 sec (0 allocations: 0 byte, 0.0% gc time)
  tm4 : 0.024828 sec (0 allocations: 0 byte, 0.0% gc time)
  tp2 : 0.0 sec (0 allocations: 0 byte, 0.0% gc time)
  tp2s: 0.0 sec (0 allocations: 0 byte, 0.0% gc time)
  tp4 : 0.0 sec (0 allocations: 0 byte, 0.0% gc time)
calc_wtdll!:   0.035896 sec (480 allocations: 52.5 KB, 0.0% gc time)
calc_wljj!:    0.001455 sec (1 allocations: 16 byte, 0.0% gc time)
mult_prefac!:  0.0 sec (0 allocations: 0 byte, 0.0% gc time)
convert:       0.0 sec (0 allocations: 0 byte, 0.0% gc time)
write:         0.000984 sec (0 allocations: 0 byte, 0.0% gc time)
test_rand_2f1: 0.0 sec (0 allocations: 0 byte, 0.0% gc time)
Closing outfile out/MlCache/MlCache.bin...   0.000923 seconds
  0.491711 seconds (54 allocations: 67.203 KiB)
make_phi():   0.009291 seconds (80 allocations: 276.297 KiB)
  0.003652 seconds (108 allocations: 5.813 KiB)
tskip:       1.0e-6 sec (0 allocations: 0 byte, 0.0% gc time)
tread:       0.001415 sec (20 allocations: 1.328 KB, 0.0% gc time)
tmultphi:    0.000291 sec (0 allocations: 0 byte, 0.0% gc time)
tbrfft:      0.001167 sec (96 allocations: 4.5 KB, 0.0% gc time)
tmultprefac: 0.000772 sec (0 allocations: 0 byte, 0.0% gc time)
toutfunc:    0.000113 sec (0 allocations: 0 byte, 0.0% gc time)
Created 'out/wl42_jj00.tsv'.
Created 'out/wl42_jj02.tsv'.
   Testing TwoFAST tests passed 
